MODEL 1
REMARK VINA RESULT:   -13.289      0.000      0.000
REMARK INTER + INTRA:         -17.435
REMARK INTER:                 -15.377
REMARK INTRA:                  -2.058
REMARK CONF_INDEPENDENT:        2.088
REMARK UNBOUND:                -2.058
REMARK Flexibility Score: inf
REMARK Active torsions [ 7 ] -> [ 7 ]
ROOT
ATOM      1  C1  LIG L   1      15.624  54.131  12.115  1.00  0.00     0.038 A 
ATOM      2  C2  LIG L   1      16.849  53.973  11.322  1.00  0.00    -0.029 A 
ATOM      3  C3  LIG L   1      17.750  52.912  11.669  1.00  0.00     0.007 A 
ATOM      4  C4  LIG L   1      17.454  52.026  12.767  1.00  0.00     0.024 A 
ATOM      5  C5  LIG L   1      16.264  52.173  13.537  1.00  0.00     0.035 A 
ATOM      6  C6  LIG L   1      15.348  53.249  13.192  1.00  0.00     0.047 A 
ATOM      7  C7  LIG L   1      17.215  54.890  10.131  1.00  0.00     0.045 C 
ENDROOT
BRANCH    1    8
ATOM      8  N1  LIG L   1      14.710  55.146  11.827  1.00  0.00    -0.283 N 
ATOM      9  H1  LIG L   1      13.976  54.975  11.194  1.00  0.00     0.155 HD
BRANCH    8   10
ATOM     10  C8  LIG L   1      14.825  56.393  12.424  1.00  0.00     0.220 A 
ATOM     11  C9  LIG L   1      13.811  58.498  12.887  1.00  0.00     0.077 A 
ATOM     12 C10  LIG L   1      14.984  58.936  13.586  1.00  0.00     0.048 A 
ATOM     13  N2  LIG L   1      13.777  57.238  12.333  1.00  0.00    -0.214 NA
ATOM     14 C11  LIG L   1      16.066  58.031  13.668  1.00  0.00     0.116 A 
ATOM     15  N3  LIG L   1      15.971  56.784  13.089  1.00  0.00    -0.223 NA
BRANCH   11   16
ATOM     16 C12  LIG L   1      12.586  59.341  12.712  1.00  0.00     0.019 A 
ATOM     17 C13  LIG L   1      11.121  61.307  13.307  1.00  0.00     0.020 A 
ATOM     18 C14  LIG L   1      12.319  60.527  13.516  1.00  0.00     0.013 A 
ATOM     19 C15  LIG L   1      10.199  60.880  12.288  1.00  0.00     0.111 A 
ATOM     20  N4  LIG L   1      10.467  59.737  11.520  1.00  0.00    -0.263 NA
ATOM     21 C16  LIG L   1      11.612  58.968  11.697  1.00  0.00     0.120 A 
ENDBRANCH   11   16
ENDBRANCH    8   10
ENDBRANCH    1    8
BRANCH    5   22
ATOM     22  N5  LIG L   1      16.032  51.243  14.614  1.00  0.00    -0.281 N 
ATOM     23 C17  LIG L   1      15.163  51.378  15.685  1.00  0.00     0.248 C 
ATOM     24  H2  LIG L   1      16.556  50.409  14.585  1.00  0.00     0.155 HD
ATOM     25  O1  LIG L   1      14.607  52.420  15.995  1.00  0.00    -0.270 OA
BRANCH   23   26
ATOM     26 C18  LIG L   1      14.884  50.187  16.543  1.00  0.00     0.037 A 
ATOM     27 C19  LIG L   1      15.904  49.161  16.774  1.00  0.00     0.013 A 
ATOM     28 C20  LIG L   1      13.575  50.047  17.144  1.00  0.00     0.013 A 
ATOM     29 C21  LIG L   1      15.603  48.013  17.592  1.00  0.00     0.002 A 
ATOM     30 C22  LIG L   1      13.283  48.921  17.946  1.00  0.00     0.002 A 
ATOM     31 C23  LIG L   1      14.275  47.886  18.187  1.00  0.00    -0.064 A 
BRANCH   31   32
ATOM     32 C24  LIG L   1      13.859  46.685  19.057  1.00  0.00    -0.043 C 
BRANCH   32   33
ATOM     33  N6  LIG L   1      14.646  46.437  20.302  1.00  0.00     0.380 N 
ATOM     34 C25  LIG L   1      15.532  45.226  20.137  1.00  0.00    -0.097 C 
ATOM     35 C26  LIG L   1      15.485  47.653  20.703  1.00  0.00    -0.097 C 
ATOM     36  H3  LIG L   1      13.975  46.262  21.051  1.00  0.00    -0.082 HD
ATOM     37 C27  LIG L   1      16.344  44.938  21.430  1.00  0.00    -0.098 C 
ATOM     38 C28  LIG L   1      16.284  47.384  22.019  1.00  0.00    -0.098 C 
ATOM     39  N7  LIG L   1      17.171  46.152  21.832  1.00  0.00     0.375 N 
ATOM     40 C29  LIG L   1      17.967  45.931  23.048  1.00  0.00    -0.096 C 
ATOM     41  H4  LIG L   1      17.823  46.311  21.063  1.00  0.00    -0.082 HD
ENDBRANCH   32   33
ENDBRANCH   31   32
ENDBRANCH   23   26
ENDBRANCH    5   22
TORSDOF 7
BEGIN_RES THR A 315
REMARK  2 active torsions:
REMARK  status: ('A' for Active; 'I' for Inactive)
REMARK    1  A    between atoms: CA   and  CB  
REMARK    2  A    between atoms: CB   and  OG1 
ROOT
ATOM      1  CA  THR A 315      13.079  52.503   8.093  1.00 45.40     0.205 C 
ENDROOT
BRANCH   1   2
ATOM      2  CB  THR A 315      13.429  52.900   9.553  1.00 45.76     0.146 C 
ATOM      3  CG2 THR A 315      13.884  51.735  10.358  1.00 42.73     0.042 C 
BRANCH   2   4
ATOM      4  OG1 THR A 315      14.428  53.927   9.538  1.00 47.20    -0.393 OA
ATOM      5  HG1 THR A 315      14.515  54.222   8.756  1.00 47.20     0.210 HD
ENDBRANCH   2   4
ENDBRANCH   1   2
END_RES THR A 315
ENDMDL
MODEL 2
REMARK VINA RESULT:   -12.443      2.230      2.623
REMARK INTER + INTRA:         -16.386
REMARK INTER:                 -14.531
REMARK INTRA:                  -1.855
REMARK CONF_INDEPENDENT:        2.088
REMARK UNBOUND:                -1.855
REMARK Flexibility Score: inf
REMARK Active torsions [ 7 ] -> [ 7 ]
ROOT
ATOM      1  C1  LIG L   1      15.852  54.132  12.241  1.00  0.00     0.038 A 
ATOM      2  C2  LIG L   1      16.867  53.953  11.196  1.00  0.00    -0.029 A 
ATOM      3  C3  LIG L   1      17.912  52.996  11.423  1.00  0.00     0.007 A 
ATOM      4  C4  LIG L   1      17.957  52.233  12.646  1.00  0.00     0.024 A 
ATOM      5  C5  LIG L   1      16.971  52.402  13.661  1.00  0.00     0.035 A 
ATOM      6  C6  LIG L   1      15.911  53.373  13.437  1.00  0.00     0.047 A 
ATOM      7  C7  LIG L   1      16.864  54.738   9.864  1.00  0.00     0.045 C 
ENDROOT
BRANCH    1    8
ATOM      8  N1  LIG L   1      14.812  55.050  12.079  1.00  0.00    -0.283 N 
ATOM      9  H1  LIG L   1      13.980  54.770  11.632  1.00  0.00     0.155 HD
BRANCH    8   10
ATOM     10  C8  LIG L   1      14.937  56.352  12.540  1.00  0.00     0.220 A 
ATOM     11  C9  LIG L   1      13.915  58.482  12.843  1.00  0.00     0.077 A 
ATOM     12 C10  LIG L   1      15.117  59.001  13.430  1.00  0.00     0.048 A 
ATOM     13  N2  LIG L   1      13.872  57.172  12.421  1.00  0.00    -0.214 NA
ATOM     14 C11  LIG L   1      16.216  58.122  13.544  1.00  0.00     0.116 A 
ATOM     15  N3  LIG L   1      16.111  56.821  13.100  1.00  0.00    -0.223 NA
BRANCH   11   16
ATOM     16 C12  LIG L   1      12.669  59.290  12.651  1.00  0.00     0.019 A 
ATOM     17 C13  LIG L   1      11.221  61.307  13.096  1.00  0.00     0.020 A 
ATOM     18 C14  LIG L   1      12.442  60.566  13.316  1.00  0.00     0.013 A 
ATOM     19 C15  LIG L   1      10.237  60.750  12.207  1.00  0.00     0.111 A 
ATOM     20  N4  LIG L   1      10.467  59.521  11.571  1.00  0.00    -0.263 NA
ATOM     21 C16  LIG L   1      11.633  58.786  11.762  1.00  0.00     0.120 A 
ENDBRANCH   11   16
ENDBRANCH    8   10
ENDBRANCH    1    8
BRANCH    5   22
ATOM     22  N5  LIG L   1      17.078  51.597  14.852  1.00  0.00    -0.281 N 
ATOM     23 C17  LIG L   1      16.056  50.993  15.567  1.00  0.00     0.248 C 
ATOM     24  H2  LIG L   1      17.989  51.459  15.200  1.00  0.00     0.155 HD
ATOM     25  O1  LIG L   1      14.868  51.233  15.410  1.00  0.00    -0.270 OA
BRANCH   23   26
ATOM     26 C18  LIG L   1      16.405  49.988  16.617  1.00  0.00     0.037 A 
ATOM     27 C19  LIG L   1      15.460  48.940  17.010  1.00  0.00     0.013 A 
ATOM     28 C20  LIG L   1      17.699  50.068  17.260  1.00  0.00     0.013 A 
ATOM     29 C21  LIG L   1      15.815  47.994  18.038  1.00  0.00     0.002 A 
ATOM     30 C22  LIG L   1      18.045  49.138  18.266  1.00  0.00     0.002 A 
ATOM     31 C23  LIG L   1      17.124  48.092  18.679  1.00  0.00    -0.064 A 
BRANCH   31   32
ATOM     32 C24  LIG L   1      17.579  47.138  19.800  1.00  0.00    -0.043 C 
BRANCH   32   33
ATOM     33  N6  LIG L   1      18.904  46.470  19.633  1.00  0.00     0.380 N 
ATOM     34 C25  LIG L   1      19.220  46.275  18.170  1.00  0.00    -0.097 C 
ATOM     35 C26  LIG L   1      20.031  47.251  20.314  1.00  0.00    -0.097 C 
ATOM     36  H3  LIG L   1      18.840  45.559  20.087  1.00  0.00    -0.082 HD
ATOM     37 C27  LIG L   1      20.587  45.561  17.975  1.00  0.00    -0.098 C 
ATOM     38 C28  LIG L   1      21.407  46.526  20.149  1.00  0.00    -0.098 C 
ATOM     39  N7  LIG L   1      21.704  46.335  18.661  1.00  0.00     0.375 N 
ATOM     40 C29  LIG L   1      23.023  45.706  18.501  1.00  0.00    -0.096 C 
ATOM     41  H4  LIG L   1      21.738  47.243  18.197  1.00  0.00    -0.082 HD
ENDBRANCH   32   33
ENDBRANCH   31   32
ENDBRANCH   23   26
ENDBRANCH    5   22
TORSDOF 7
BEGIN_RES THR A 315
REMARK  2 active torsions:
REMARK  status: ('A' for Active; 'I' for Inactive)
REMARK    1  A    between atoms: CA   and  CB  
REMARK    2  A    between atoms: CB   and  OG1 
ROOT
ATOM      1  CA  THR A 315      13.079  52.503   8.093  1.00 45.40     0.205 C 
ENDROOT
BRANCH   1   2
ATOM      2  CB  THR A 315      13.429  52.900   9.553  1.00 45.76     0.146 C 
ATOM      3  CG2 THR A 315      14.335  51.914  10.202  1.00 42.73     0.042 C 
BRANCH   2   4
ATOM      4  OG1 THR A 315      14.015  54.208   9.560  1.00 47.20    -0.393 OA
ATOM      5  HG1 THR A 315      13.723  54.649   8.908  1.00 47.20     0.210 HD
ENDBRANCH   2   4
ENDBRANCH   1   2
END_RES THR A 315
ENDMDL
MODEL 3
REMARK VINA RESULT:   -12.222      1.389      2.102
REMARK INTER + INTRA:         -16.049
REMARK INTER:                 -14.310
REMARK INTRA:                  -1.739
REMARK CONF_INDEPENDENT:        2.088
REMARK UNBOUND:                -1.739
REMARK Flexibility Score: inf
REMARK Active torsions [ 7 ] -> [ 7 ]
ROOT
ATOM      1  C1  LIG L   1      15.922  54.008  13.929  1.00  0.00     0.038 A 
ATOM      2  C2  LIG L   1      16.867  53.417  12.974  1.00  0.00    -0.029 A 
ATOM      3  C3  LIG L   1      17.310  52.072  13.203  1.00  0.00     0.007 A 
ATOM      4  C4  LIG L   1      16.833  51.324  14.341  1.00  0.00     0.024 A 
ATOM      5  C5  LIG L   1      15.912  51.894  15.268  1.00  0.00     0.035 A 
ATOM      6  C6  LIG L   1      15.462  53.259  15.042  1.00  0.00     0.047 A 
ATOM      7  C7  LIG L   1      17.406  54.169  11.735  1.00  0.00     0.045 C 
ENDROOT
BRANCH    1    8
ATOM      8  N1  LIG L   1      15.457  55.315  13.761  1.00  0.00    -0.283 N 
ATOM      9  H1  LIG L   1      15.868  56.047  14.275  1.00  0.00     0.155 HD
BRANCH    8   10
ATOM     10  C8  LIG L   1      14.424  55.591  12.878  1.00  0.00     0.220 A 
ATOM     11  C9  LIG L   1      12.787  57.151  12.129  1.00  0.00     0.077 A 
ATOM     12 C10  LIG L   1      12.317  56.220  11.143  1.00  0.00     0.048 A 
ATOM     13  N2  LIG L   1      13.827  56.799  12.959  1.00  0.00    -0.214 NA
ATOM     14 C11  LIG L   1      12.960  54.964  11.078  1.00  0.00     0.116 A 
ATOM     15  N3  LIG L   1      13.995  54.670  11.941  1.00  0.00    -0.223 NA
BRANCH   11   16
ATOM     16 C12  LIG L   1      12.207  58.517  12.322  1.00  0.00     0.019 A 
ATOM     17 C13  LIG L   1      12.300  60.883  13.192  1.00  0.00     0.020 A 
ATOM     18 C14  LIG L   1      12.905  59.581  13.033  1.00  0.00     0.013 A 
ATOM     19 C15  LIG L   1      10.992  61.101  12.633  1.00  0.00     0.111 A 
ATOM     20  N4  LIG L   1      10.330  60.070  11.949  1.00  0.00    -0.263 NA
ATOM     21 C16  LIG L   1      10.888  58.807  11.779  1.00  0.00     0.120 A 
ENDBRANCH   11   16
ENDBRANCH    8   10
ENDBRANCH    1    8
BRANCH    5   22
ATOM     22  N5  LIG L   1      15.474  51.082  16.375  1.00  0.00    -0.281 N 
ATOM     23 C17  LIG L   1      14.582  50.022  16.354  1.00  0.00     0.248 C 
ATOM     24  H2  LIG L   1      15.855  51.309  17.254  1.00  0.00     0.155 HD
ATOM     25  O1  LIG L   1      13.858  49.747  15.408  1.00  0.00    -0.270 OA
BRANCH   23   26
ATOM     26 C18  LIG L   1      14.467  49.151  17.563  1.00  0.00     0.037 A 
ATOM     27 C19  LIG L   1      13.434  49.388  18.575  1.00  0.00     0.013 A 
ATOM     28 C20  LIG L   1      15.404  48.062  17.734  1.00  0.00     0.013 A 
ATOM     29 C21  LIG L   1      13.356  48.543  19.740  1.00  0.00     0.002 A 
ATOM     30 C22  LIG L   1      15.324  47.235  18.876  1.00  0.00     0.002 A 
ATOM     31 C23  LIG L   1      14.313  47.451  19.898  1.00  0.00    -0.064 A 
BRANCH   31   32
ATOM     32 C24  LIG L   1      14.317  46.513  21.120  1.00  0.00    -0.043 C 
BRANCH   32   33
ATOM     33  N6  LIG L   1      15.635  46.233  21.763  1.00  0.00     0.380 N 
ATOM     34 C25  LIG L   1      16.358  45.128  21.032  1.00  0.00    -0.097 C 
ATOM     35 C26  LIG L   1      16.517  47.483  21.832  1.00  0.00    -0.097 C 
ATOM     36  H3  LIG L   1      15.446  45.934  22.719  1.00  0.00    -0.082 HD
ATOM     37 C27  LIG L   1      17.725  44.807  21.698  1.00  0.00    -0.098 C 
ATOM     38 C28  LIG L   1      17.884  47.177  22.528  1.00  0.00    -0.098 C 
ATOM     39  N7  LIG L   1      18.596  46.053  21.775  1.00  0.00     0.375 N 
ATOM     40 C29  LIG L   1      19.907  45.803  22.392  1.00  0.00    -0.096 C 
ATOM     41  H4  LIG L   1      18.761  46.336  20.809  1.00  0.00    -0.082 HD
ENDBRANCH   32   33
ENDBRANCH   31   32
ENDBRANCH   23   26
ENDBRANCH    5   22
TORSDOF 7
BEGIN_RES THR A 315
REMARK  2 active torsions:
REMARK  status: ('A' for Active; 'I' for Inactive)
REMARK    1  A    between atoms: CA   and  CB  
REMARK    2  A    between atoms: CB   and  OG1 
ROOT
ATOM      1  CA  THR A 315      13.079  52.503   8.093  1.00 45.40     0.205 C 
ENDROOT
BRANCH   1   2
ATOM      2  CB  THR A 315      13.429  52.900   9.553  1.00 45.76     0.146 C 
ATOM      3  CG2 THR A 315      13.039  51.848  10.530  1.00 42.73     0.042 C 
BRANCH   2   4
ATOM      4  OG1 THR A 315      14.831  53.182   9.644  1.00 47.20    -0.393 OA
ATOM      5  HG1 THR A 315      14.991  53.575  10.368  1.00 47.20     0.210 HD
ENDBRANCH   2   4
ENDBRANCH   1   2
END_RES THR A 315
ENDMDL
MODEL 4
REMARK VINA RESULT:   -11.815      2.669     10.900
REMARK INTER + INTRA:         -16.154
REMARK INTER:                 -13.903
REMARK INTRA:                  -2.250
REMARK CONF_INDEPENDENT:        2.088
REMARK UNBOUND:                -2.250
REMARK Flexibility Score: inf
REMARK Active torsions [ 7 ] -> [ 7 ]
ROOT
ATOM      1  C1  LIG L   1      15.772  48.634  17.975  1.00  0.00     0.038 A 
ATOM      2  C2  LIG L   1      17.125  48.160  18.291  1.00  0.00    -0.029 A 
ATOM      3  C3  LIG L   1      18.238  48.845  17.699  1.00  0.00     0.007 A 
ATOM      4  C4  LIG L   1      18.028  49.969  16.821  1.00  0.00     0.024 A 
ATOM      5  C5  LIG L   1      16.716  50.434  16.515  1.00  0.00     0.035 A 
ATOM      6  C6  LIG L   1      15.583  49.742  17.110  1.00  0.00     0.047 A 
ATOM      7  C7  LIG L   1      17.409  46.965  19.230  1.00  0.00     0.045 C 
ENDROOT
BRANCH    1    8
ATOM      8  N1  LIG L   1      14.648  48.007  18.518  1.00  0.00    -0.283 N 
ATOM      9  H1  LIG L   1      14.759  47.360  19.252  1.00  0.00     0.155 HD
BRANCH    8   10
ATOM     10  C8  LIG L   1      13.379  48.285  18.035  1.00  0.00     0.220 A 
ATOM     11  C9  LIG L   1      11.809  48.043  16.260  1.00  0.00     0.077 A 
ATOM     12 C10  LIG L   1      10.839  48.817  16.980  1.00  0.00     0.048 A 
ATOM     13  N2  LIG L   1      13.044  47.805  16.819  1.00  0.00    -0.214 NA
ATOM     14 C11  LIG L   1      11.214  49.307  18.252  1.00  0.00     0.116 A 
ATOM     15  N3  LIG L   1      12.468  49.036  18.755  1.00  0.00    -0.223 NA
BRANCH   11   16
ATOM     16 C12  LIG L   1      11.562  47.461  14.903  1.00  0.00     0.019 A 
ATOM     17 C13  LIG L   1      10.108  46.307  13.195  1.00  0.00     0.020 A 
ATOM     18 C14  LIG L   1      10.294  46.855  14.519  1.00  0.00     0.013 A 
ATOM     19 C15  LIG L   1      11.207  46.373  12.269  1.00  0.00     0.111 A 
ATOM     20  N4  LIG L   1      12.423  46.960  12.649  1.00  0.00    -0.263 NA
ATOM     21 C16  LIG L   1      12.631  47.497  13.916  1.00  0.00     0.120 A 
ENDBRANCH   11   16
ENDBRANCH    8   10
ENDBRANCH    1    8
BRANCH    5   22
ATOM     22  N5  LIG L   1      16.586  51.570  15.636  1.00  0.00    -0.281 N 
ATOM     23 C17  LIG L   1      15.585  51.822  14.713  1.00  0.00     0.248 C 
ATOM     24  H2  LIG L   1      17.296  52.249  15.701  1.00  0.00     0.155 HD
ATOM     25  O1  LIG L   1      14.757  51.000  14.349  1.00  0.00    -0.270 OA
BRANCH   23   26
ATOM     26 C18  LIG L   1      15.500  53.179  14.092  1.00  0.00     0.037 A 
ATOM     27 C19  LIG L   1      16.706  53.963  13.811  1.00  0.00     0.013 A 
ATOM     28 C20  LIG L   1      14.197  53.725  13.778  1.00  0.00     0.013 A 
ATOM     29 C21  LIG L   1      16.594  55.276  13.227  1.00  0.00     0.002 A 
ATOM     30 C22  LIG L   1      14.092  55.013  13.206  1.00  0.00     0.002 A 
ATOM     31 C23  LIG L   1      15.271  55.814  12.921  1.00  0.00    -0.064 A 
BRANCH   31   32
ATOM     32 C24  LIG L   1      15.057  57.215  12.317  1.00  0.00    -0.043 C 
BRANCH   32   33
ATOM     33  N6  LIG L   1      13.786  57.920  12.661  1.00  0.00     0.380 N 
ATOM     34 C25  LIG L   1      14.061  59.356  13.034  1.00  0.00    -0.097 C 
ATOM     35 C26  LIG L   1      12.768  57.859  11.519  1.00  0.00    -0.097 C 
ATOM     36  H3  LIG L   1      13.382  57.437  13.463  1.00  0.00    -0.082 HD
ATOM     37 C27  LIG L   1      12.753  60.103  13.416  1.00  0.00    -0.098 C 
ATOM     38 C28  LIG L   1      11.437  58.583  11.904  1.00  0.00    -0.098 C 
ATOM     39  N7  LIG L   1      11.739  60.033  12.283  1.00  0.00     0.375 N 
ATOM     40 C29  LIG L   1      10.482  60.732  12.589  1.00  0.00    -0.096 C 
ATOM     41  H4  LIG L   1      12.172  60.512  11.492  1.00  0.00    -0.082 HD
ENDBRANCH   32   33
ENDBRANCH   31   32
ENDBRANCH   23   26
ENDBRANCH    5   22
TORSDOF 7
BEGIN_RES THR A 315
REMARK  2 active torsions:
REMARK  status: ('A' for Active; 'I' for Inactive)
REMARK    1  A    between atoms: CA   and  CB  
REMARK    2  A    between atoms: CB   and  OG1 
ROOT
ATOM      1  CA  THR A 315      13.079  52.503   8.093  1.00 45.40     0.205 C 
ENDROOT
BRANCH   1   2
ATOM      2  CB  THR A 315      13.429  52.900   9.553  1.00 45.76     0.146 C 
ATOM      3  CG2 THR A 315      14.265  51.872  10.230  1.00 42.73     0.042 C 
BRANCH   2   4
ATOM      4  OG1 THR A 315      14.090  54.171   9.552  1.00 47.20    -0.393 OA
ATOM      5  HG1 THR A 315      14.224  54.417   8.760  1.00 47.20     0.210 HD
ENDBRANCH   2   4
ENDBRANCH   1   2
END_RES THR A 315
ENDMDL
MODEL 5
REMARK VINA RESULT:   -11.815      2.558     10.667
REMARK INTER + INTRA:         -16.172
REMARK INTER:                 -13.903
REMARK INTRA:                  -2.269
REMARK CONF_INDEPENDENT:        2.088
REMARK UNBOUND:                -2.269
REMARK Flexibility Score: inf
REMARK Active torsions [ 7 ] -> [ 7 ]
ROOT
ATOM      1  C1  LIG L   1      15.818  48.484  18.395  1.00  0.00     0.038 A 
ATOM      2  C2  LIG L   1      17.149  48.046  18.832  1.00  0.00    -0.029 A 
ATOM      3  C3  LIG L   1      18.297  48.630  18.199  1.00  0.00     0.007 A 
ATOM      4  C4  LIG L   1      18.140  49.622  17.164  1.00  0.00     0.024 A 
ATOM      5  C5  LIG L   1      16.850  50.053  16.740  1.00  0.00     0.035 A 
ATOM      6  C6  LIG L   1      15.682  49.462  17.376  1.00  0.00     0.047 A 
ATOM      7  C7  LIG L   1      17.376  46.991  19.940  1.00  0.00     0.045 C 
ENDROOT
BRANCH    1    8
ATOM      8  N1  LIG L   1      14.663  47.950  18.971  1.00  0.00    -0.283 N 
ATOM      9  H1  LIG L   1      14.740  47.352  19.750  1.00  0.00     0.155 HD
BRANCH    8   10
ATOM     10  C8  LIG L   1      13.411  48.253  18.460  1.00  0.00     0.220 A 
ATOM     11  C9  LIG L   1      11.889  48.073  16.636  1.00  0.00     0.077 A 
ATOM     12 C10  LIG L   1      10.907  48.839  17.349  1.00  0.00     0.048 A 
ATOM     13  N2  LIG L   1      13.106  47.808  17.223  1.00  0.00    -0.214 NA
ATOM     14 C11  LIG L   1      11.251  49.292  18.642  1.00  0.00     0.116 A 
ATOM     15  N3  LIG L   1      12.488  48.996  19.173  1.00  0.00    -0.223 NA
BRANCH   11   16
ATOM     16 C12  LIG L   1      11.675  47.527  15.259  1.00  0.00     0.019 A 
ATOM     17 C13  LIG L   1      10.306  46.313  13.522  1.00  0.00     0.020 A 
ATOM     18 C14  LIG L   1      10.462  46.820  14.866  1.00  0.00     0.013 A 
ATOM     19 C15  LIG L   1      11.378  46.521  12.585  1.00  0.00     0.111 A 
ATOM     20  N4  LIG L   1      12.540  47.204  12.975  1.00  0.00    -0.263 NA
ATOM     21 C16  LIG L   1      12.718  47.705  14.260  1.00  0.00     0.120 A 
ENDBRANCH   11   16
ENDBRANCH    8   10
ENDBRANCH    1    8
BRANCH    5   22
ATOM     22  N5  LIG L   1      16.774  51.055  15.707  1.00  0.00    -0.281 N 
ATOM     23 C17  LIG L   1      15.686  51.839  15.358  1.00  0.00     0.248 C 
ATOM     24  H2  LIG L   1      17.596  51.200  15.185  1.00  0.00     0.155 HD
ATOM     25  O1  LIG L   1      14.543  51.646  15.745  1.00  0.00    -0.270 OA
BRANCH   23   26
ATOM     26 C18  LIG L   1      15.896  52.997  14.437  1.00  0.00     0.037 A 
ATOM     27 C19  LIG L   1      17.045  53.893  14.591  1.00  0.00     0.013 A 
ATOM     28 C20  LIG L   1      14.934  53.236  13.382  1.00  0.00     0.013 A 
ATOM     29 C21  LIG L   1      17.215  55.012  13.699  1.00  0.00     0.002 A 
ATOM     30 C22  LIG L   1      15.104  54.333  12.508  1.00  0.00     0.002 A 
ATOM     31 C23  LIG L   1      16.232  55.240  12.642  1.00  0.00    -0.064 A 
BRANCH   31   32
ATOM     32 C24  LIG L   1      16.322  56.422  11.658  1.00  0.00    -0.043 C 
BRANCH   32   33
ATOM     33  N6  LIG L   1      15.398  57.573  11.885  1.00  0.00     0.380 N 
ATOM     34 C25  LIG L   1      13.962  57.108  11.892  1.00  0.00    -0.097 C 
ATOM     35 C26  LIG L   1      15.716  58.317  13.185  1.00  0.00    -0.097 C 
ATOM     36  H3  LIG L   1      15.535  58.225  11.113  1.00  0.00    -0.082 HD
ATOM     37 C27  LIG L   1      12.982  58.295  12.106  1.00  0.00    -0.098 C 
ATOM     38 C28  LIG L   1      14.754  59.531  13.396  1.00  0.00    -0.098 C 
ATOM     39  N7  LIG L   1      13.306  59.038  13.395  1.00  0.00     0.375 N 
ATOM     40 C29  LIG L   1      12.402  60.169  13.650  1.00  0.00    -0.096 C 
ATOM     41  H4  LIG L   1      13.172  58.362  14.147  1.00  0.00    -0.082 HD
ENDBRANCH   32   33
ENDBRANCH   31   32
ENDBRANCH   23   26
ENDBRANCH    5   22
TORSDOF 7
BEGIN_RES THR A 315
REMARK  2 active torsions:
REMARK  status: ('A' for Active; 'I' for Inactive)
REMARK    1  A    between atoms: CA   and  CB  
REMARK    2  A    between atoms: CB   and  OG1 
ROOT
ATOM      1  CA  THR A 315      13.079  52.503   8.093  1.00 45.40     0.205 C 
ENDROOT
BRANCH   1   2
ATOM      2  CB  THR A 315      13.429  52.900   9.553  1.00 45.76     0.146 C 
ATOM      3  CG2 THR A 315      14.095  51.794  10.292  1.00 42.73     0.042 C 
BRANCH   2   4
ATOM      4  OG1 THR A 315      14.255  54.071   9.540  1.00 47.20    -0.393 OA
ATOM      5  HG1 THR A 315      14.560  54.190   8.767  1.00 47.20     0.210 HD
ENDBRANCH   2   4
ENDBRANCH   1   2
END_RES THR A 315
ENDMDL
MODEL 6
REMARK VINA RESULT:   -10.484      2.228      3.676
REMARK INTER + INTRA:         -14.272
REMARK INTER:                 -12.572
REMARK INTRA:                  -1.700
REMARK CONF_INDEPENDENT:        2.088
REMARK UNBOUND:                -1.700
REMARK Flexibility Score: inf
REMARK Active torsions [ 7 ] -> [ 7 ]
ROOT
ATOM      1  C1  LIG L   1      14.716  51.099  12.277  1.00  0.00     0.038 A 
ATOM      2  C2  LIG L   1      13.920  50.298  11.338  1.00  0.00    -0.029 A 
ATOM      3  C3  LIG L   1      13.164  49.196  11.860  1.00  0.00     0.007 A 
ATOM      4  C4  LIG L   1      13.188  48.889  13.269  1.00  0.00     0.024 A 
ATOM      5  C5  LIG L   1      13.957  49.667  14.183  1.00  0.00     0.035 A 
ATOM      6  C6  LIG L   1      14.727  50.784  13.660  1.00  0.00     0.047 A 
ATOM      7  C7  LIG L   1      13.853  50.585   9.820  1.00  0.00     0.045 C 
ENDROOT
BRANCH    1    8
ATOM      8  N1  LIG L   1      15.475  52.182  11.829  1.00  0.00    -0.283 N 
ATOM      9  H1  LIG L   1      15.620  52.308  10.863  1.00  0.00     0.155 HD
BRANCH    8   10
ATOM     10  C8  LIG L   1      16.025  53.083  12.728  1.00  0.00     0.220 A 
ATOM     11  C9  LIG L   1      16.122  55.329  13.515  1.00  0.00     0.077 A 
ATOM     12 C10  LIG L   1      17.101  54.967  14.499  1.00  0.00     0.048 A 
ATOM     13  N2  LIG L   1      15.619  54.368  12.667  1.00  0.00    -0.214 NA
ATOM     14 C11  LIG L   1      17.508  53.614  14.543  1.00  0.00     0.116 A 
ATOM     15  N3  LIG L   1      16.968  52.700  13.664  1.00  0.00    -0.223 NA
BRANCH   11   16
ATOM     16 C12  LIG L   1      15.595  56.719  13.342  1.00  0.00     0.019 A 
ATOM     17 C13  LIG L   1      13.744  58.366  12.866  1.00  0.00     0.020 A 
ATOM     18 C14  LIG L   1      14.202  57.004  13.022  1.00  0.00     0.013 A 
ATOM     19 C15  LIG L   1      14.698  59.430  13.033  1.00  0.00     0.111 A 
ATOM     20  N4  LIG L   1      16.036  59.144  13.343  1.00  0.00    -0.263 NA
ATOM     21 C16  LIG L   1      16.506  57.843  13.500  1.00  0.00     0.120 A 
ENDBRANCH   11   16
ENDBRANCH    8   10
ENDBRANCH    1    8
BRANCH    5   22
ATOM     22  N5  LIG L   1      13.922  49.304  15.578  1.00  0.00    -0.281 N 
ATOM     23 C17  LIG L   1      12.815  48.998  16.352  1.00  0.00     0.248 C 
ATOM     24  H2  LIG L   1      14.793  49.270  16.037  1.00  0.00     0.155 HD
ATOM     25  O1  LIG L   1      11.658  49.199  16.013  1.00  0.00    -0.270 OA
BRANCH   23   26
ATOM     26 C18  LIG L   1      13.022  48.396  17.704  1.00  0.00     0.037 A 
ATOM     27 C19  LIG L   1      12.064  48.617  18.790  1.00  0.00     0.013 A 
ATOM     28 C20  LIG L   1      14.201  47.590  17.938  1.00  0.00     0.013 A 
ATOM     29 C21  LIG L   1      12.297  48.038  20.089  1.00  0.00     0.002 A 
ATOM     30 C22  LIG L   1      14.426  47.023  19.213  1.00  0.00     0.002 A 
ATOM     31 C23  LIG L   1      13.494  47.231  20.309  1.00  0.00    -0.064 A 
BRANCH   31   32
ATOM     32 C24  LIG L   1      13.834  46.592  21.669  1.00  0.00    -0.043 C 
BRANCH   32   33
ATOM     33  N6  LIG L   1      15.275  46.326  21.958  1.00  0.00     0.380 N 
ATOM     34 C25  LIG L   1      15.754  45.114  21.198  1.00  0.00    -0.097 C 
ATOM     35 C26  LIG L   1      16.158  47.534  21.634  1.00  0.00    -0.097 C 
ATOM     36  H3  LIG L   1      15.352  46.146  22.960  1.00  0.00    -0.082 HD
ATOM     37 C27  LIG L   1      17.247  44.808  21.502  1.00  0.00    -0.098 C 
ATOM     38 C28  LIG L   1      17.659  47.247  21.964  1.00  0.00    -0.098 C 
ATOM     39  N7  LIG L   1      18.122  46.013  21.187  1.00  0.00     0.375 N 
ATOM     40 C29  LIG L   1      19.549  45.775  21.451  1.00  0.00    -0.096 C 
ATOM     41  H4  LIG L   1      18.018  46.178  20.186  1.00  0.00    -0.082 HD
ENDBRANCH   32   33
ENDBRANCH   31   32
ENDBRANCH   23   26
ENDBRANCH    5   22
TORSDOF 7
BEGIN_RES THR A 315
REMARK  2 active torsions:
REMARK  status: ('A' for Active; 'I' for Inactive)
REMARK    1  A    between atoms: CA   and  CB  
REMARK    2  A    between atoms: CB   and  OG1 
ROOT
ATOM      1  CA  THR A 315      13.079  52.503   8.093  1.00 45.40     0.205 C 
ENDROOT
BRANCH   1   2
ATOM      2  CB  THR A 315      13.429  52.900   9.553  1.00 45.76     0.146 C 
ATOM      3  CG2 THR A 315      14.192  54.176   9.621  1.00 42.73     0.042 C 
BRANCH   2   4
ATOM      4  OG1 THR A 315      12.223  52.989  10.321  1.00 47.20    -0.393 OA
ATOM      5  HG1 THR A 315      11.800  53.680  10.100  1.00 47.20     0.210 HD
ENDBRANCH   2   4
ENDBRANCH   1   2
END_RES THR A 315
ENDMDL
MODEL 7
REMARK VINA RESULT:   -10.420      2.055     10.855
REMARK INTER + INTRA:         -15.054
REMARK INTER:                 -12.508
REMARK INTRA:                  -2.546
REMARK CONF_INDEPENDENT:        2.088
REMARK UNBOUND:                -2.546
REMARK Flexibility Score: inf
REMARK Active torsions [ 7 ] -> [ 7 ]
ROOT
ATOM      1  C1  LIG L   1      18.068  47.257  19.365  1.00  0.00     0.038 A 
ATOM      2  C2  LIG L   1      19.191  47.827  20.120  1.00  0.00    -0.029 A 
ATOM      3  C3  LIG L   1      19.773  49.051  19.649  1.00  0.00     0.007 A 
ATOM      4  C4  LIG L   1      19.264  49.700  18.466  1.00  0.00     0.024 A 
ATOM      5  C5  LIG L   1      18.172  49.152  17.733  1.00  0.00     0.035 A 
ATOM      6  C6  LIG L   1      17.579  47.910  18.204  1.00  0.00     0.047 A 
ATOM      7  C7  LIG L   1      19.773  47.178  21.397  1.00  0.00     0.045 C 
ENDROOT
BRANCH    1    8
ATOM      8  N1  LIG L   1      17.461  46.067  19.772  1.00  0.00    -0.283 N 
ATOM      9  H1  LIG L   1      18.009  45.258  19.893  1.00  0.00     0.155 HD
BRANCH    8   10
ATOM     10  C8  LIG L   1      16.097  46.013  20.009  1.00  0.00     0.220 A 
ATOM     11  C9  LIG L   1      13.929  46.835  19.461  1.00  0.00     0.077 A 
ATOM     12 C10  LIG L   1      13.329  45.975  20.441  1.00  0.00     0.048 A 
ATOM     13  N2  LIG L   1      15.294  46.818  19.282  1.00  0.00    -0.214 NA
ATOM     14 C11  LIG L   1      14.192  45.141  21.187  1.00  0.00     0.116 A 
ATOM     15  N3  LIG L   1      15.551  45.173  20.963  1.00  0.00    -0.223 NA
BRANCH   11   16
ATOM     16 C12  LIG L   1      13.150  47.776  18.596  1.00  0.00     0.019 A 
ATOM     17 C13  LIG L   1      12.732  48.990  16.424  1.00  0.00     0.020 A 
ATOM     18 C14  LIG L   1      13.519  48.073  17.217  1.00  0.00     0.013 A 
ATOM     19 C15  LIG L   1      11.580  49.602  17.032  1.00  0.00     0.111 A 
ATOM     20  N4  LIG L   1      11.234  49.307  18.359  1.00  0.00    -0.263 NA
ATOM     21 C16  LIG L   1      11.971  48.428  19.146  1.00  0.00     0.120 A 
ENDBRANCH   11   16
ENDBRANCH    8   10
ENDBRANCH    1    8
BRANCH    5   22
ATOM     22  N5  LIG L   1      17.713  49.863  16.566  1.00  0.00    -0.281 N 
ATOM     23 C17  LIG L   1      16.499  50.504  16.382  1.00  0.00     0.248 C 
ATOM     24  H2  LIG L   1      18.339  49.897  15.807  1.00  0.00     0.155 HD
ATOM     25  O1  LIG L   1      15.533  50.380  17.121  1.00  0.00    -0.270 OA
BRANCH   23   26
ATOM     26 C18  LIG L   1      16.328  51.402  15.200  1.00  0.00     0.037 A 
ATOM     27 C19  LIG L   1      15.102  51.376  14.397  1.00  0.00     0.013 A 
ATOM     28 C20  LIG L   1      17.403  52.302  14.842  1.00  0.00     0.013 A 
ATOM     29 C21  LIG L   1      14.970  52.240  13.251  1.00  0.00     0.002 A 
ATOM     30 C22  LIG L   1      17.269  53.149  13.719  1.00  0.00     0.002 A 
ATOM     31 C23  LIG L   1      16.067  53.140  12.902  1.00  0.00    -0.064 A 
BRANCH   31   32
ATOM     32 C24  LIG L   1      16.021  54.082  11.684  1.00  0.00    -0.043 C 
BRANCH   32   33
ATOM     33  N6  LIG L   1      15.284  55.371  11.844  1.00  0.00     0.380 N 
ATOM     34 C25  LIG L   1      14.172  55.224  12.853  1.00  0.00    -0.097 C 
ATOM     35 C26  LIG L   1      16.215  56.518  12.249  1.00  0.00    -0.097 C 
ATOM     36  H3  LIG L   1      14.884  55.602  10.934  1.00  0.00    -0.082 HD
ATOM     37 C27  LIG L   1      13.379  56.551  13.019  1.00  0.00    -0.098 C 
ATOM     38 C28  LIG L   1      15.431  57.863  12.389  1.00  0.00    -0.098 C 
ATOM     39  N7  LIG L   1      14.307  57.691  13.412  1.00  0.00     0.375 N 
ATOM     40 C29  LIG L   1      13.605  58.970  13.590  1.00  0.00    -0.096 C 
ATOM     41  H4  LIG L   1      14.701  57.429  14.316  1.00  0.00    -0.082 HD
ENDBRANCH   32   33
ENDBRANCH   31   32
ENDBRANCH   23   26
ENDBRANCH    5   22
TORSDOF 7
BEGIN_RES THR A 315
REMARK  2 active torsions:
REMARK  status: ('A' for Active; 'I' for Inactive)
REMARK    1  A    between atoms: CA   and  CB  
REMARK    2  A    between atoms: CB   and  OG1 
ROOT
ATOM      1  CA  THR A 315      13.079  52.503   8.093  1.00 45.40     0.205 C 
ENDROOT
BRANCH   1   2
ATOM      2  CB  THR A 315      13.429  52.900   9.553  1.00 45.76     0.146 C 
ATOM      3  CG2 THR A 315      14.176  51.827  10.263  1.00 42.73     0.042 C 
BRANCH   2   4
ATOM      4  OG1 THR A 315      14.179  54.120   9.545  1.00 47.20    -0.393 OA
ATOM      5  HG1 THR A 315      14.248  54.402   8.756  1.00 47.20     0.210 HD
ENDBRANCH   2   4
ENDBRANCH   1   2
END_RES THR A 315
ENDMDL
