MODEL 1
REMARK VINA RESULT:   -21.100      0.000      0.000
REMARK INTER + INTRA:         -25.804
REMARK INTER:                 -26.034
REMARK INTRA:                   0.230
REMARK UNBOUND:                 0.230
REMARK Flexibility Score: inf
REMARK Active torsions [ 2 ] -> [ 2 ]
ROOT
ATOM      1  C1  LIG L   1     -19.051  17.944 129.312  1.00  0.00     0.200 C 
ATOM      2  N1  LIG L   1     -19.907  19.161 129.365  1.00  0.00    -0.321 N 
ATOM      3  C2  LIG L   1     -20.876  19.335 128.392  1.00  0.00     0.041 A 
ATOM      4  C3  LIG L   1     -21.911  20.213 128.621  1.00  0.00     0.024 A 
ATOM      5  C4  LIG L   1     -22.901  20.417 127.655  1.00  0.00     0.002 A 
ATOM      6  C5  LIG L   1     -22.800  19.730 126.469  1.00  0.00     0.001 A 
ATOM      7  C6  LIG L   1     -21.745  18.830 126.230  1.00  0.00     0.015 A 
ATOM      8  C7  LIG L   1     -20.799  18.602 127.208  1.00  0.00     0.058 A 
ATOM      9  C8  LIG L   1     -19.677  17.809 126.953  1.00  0.00     0.254 C 
ATOM     10  O1  LIG L   1     -19.356  17.509 125.788  1.00  0.00    -0.270 OA
ATOM     11  N2  LIG L   1     -18.767  17.580 127.910  1.00  0.00    -0.244 N 
ATOM     12  H1  LIG L   1     -19.787  19.829 130.078  1.00  0.00     0.148 HD
ENDROOT
BRANCH    1   13
ATOM     13  C9  LIG L   1     -19.676  16.839 129.936  1.00  0.00     0.026 A 
ATOM     14  F1  LIG L   1     -19.002  17.690 131.943  1.00  0.00    -0.205 F 
ATOM     15 C10  LIG L   1     -19.612  16.763 131.321  1.00  0.00     0.130 A 
ATOM     16 C11  LIG L   1     -20.184  15.711 132.025  1.00  0.00     0.039 A 
ATOM     17 C12  LIG L   1     -20.323  15.780 129.265  1.00  0.00     0.010 A 
ATOM     18 C13  LIG L   1     -20.830  14.674 131.376  1.00  0.00     0.003 A 
ATOM     19 C14  LIG L   1     -20.924  14.725 129.986  1.00  0.00     0.001 A 
ENDBRANCH    1   13
BRANCH   11   20
ATOM     20 C15  LIG L   1     -17.565  17.078 127.585  1.00  0.00     0.039 A 
ATOM     21 C16  LIG L   1     -16.526  18.018 127.448  1.00  0.00     0.023 A 
ATOM     22 C17  LIG L   1     -17.290  15.742 127.351  1.00  0.00     0.023 A 
ATOM     23 C18  LIG L   1     -15.229  17.646 127.149  1.00  0.00     0.002 A 
ATOM     24 C19  LIG L   1     -15.970  15.361 127.015  1.00  0.00     0.002 A 
ATOM     25 C20  LIG L   1     -14.948  16.314 126.924  1.00  0.00     0.000 A 
ENDBRANCH   11   20
TORSDOF 2
REMARK Flexibility Score: inf
REMARK Active torsions [ 2 ] -> [ 2 ]
ROOT
ATOM      1  C1  LIG L   1     -12.168  15.689 130.148  1.00  0.00     0.200 C 
ATOM      2  N1  LIG L   1     -13.611  16.174 130.218  1.00  0.00    -0.321 N 
ATOM      3  C2  LIG L   1     -14.502  15.328 130.893  1.00  0.00     0.041 A 
ATOM      4  C3  LIG L   1     -15.818  15.240 130.508  1.00  0.00     0.024 A 
ATOM      5  C4  LIG L   1     -16.700  14.373 131.156  1.00  0.00     0.002 A 
ATOM      6  C5  LIG L   1     -16.221  13.597 132.175  1.00  0.00     0.001 A 
ATOM      7  C6  LIG L   1     -14.881  13.672 132.544  1.00  0.00     0.015 A 
ATOM      8  C7  LIG L   1     -13.994  14.492 131.868  1.00  0.00     0.058 A 
ATOM      9  C8  LIG L   1     -12.701  14.726 132.293  1.00  0.00     0.254 C 
ATOM     10  O1  LIG L   1     -12.470  14.659 133.489  1.00  0.00    -0.270 OA
ATOM     11  N2  LIG L   1     -11.813  15.442 131.573  1.00  0.00    -0.244 N 
ATOM     12  H1  LIG L   1     -13.898  17.024 129.815  1.00  0.00     0.148 HD
ENDROOT
BRANCH    1   13
ATOM     13  C9  LIG L   1     -11.880  14.489 129.390  1.00  0.00     0.026 A 
ATOM     14  F1  LIG L   1     -12.285  15.675 127.338  1.00  0.00    -0.205 F 
ATOM     15 C10  LIG L   1     -11.933  14.520 127.990  1.00  0.00     0.130 A 
ATOM     16 C11  LIG L   1     -11.625  13.396 127.225  1.00  0.00     0.039 A 
ATOM     17 C12  LIG L   1     -11.248  12.218 127.845  1.00  0.00     0.003 A 
ATOM     18 C13  LIG L   1     -11.489  13.277 129.993  1.00  0.00     0.010 A 
ATOM     19 C14  LIG L   1     -11.198  12.157 129.234  1.00  0.00     0.001 A 
ENDBRANCH    1   13
BRANCH   11   20
ATOM     20 C15  LIG L   1     -10.678  15.965 132.079  1.00  0.00     0.039 A 
ATOM     21 C16  LIG L   1      -9.538  16.113 131.292  1.00  0.00     0.023 A 
ATOM     22 C17  LIG L   1     -10.666  16.491 133.380  1.00  0.00     0.023 A 
ATOM     23 C18  LIG L   1      -8.403  16.739 131.830  1.00  0.00     0.002 A 
ATOM     24 C19  LIG L   1      -9.535  17.089 133.934  1.00  0.00     0.002 A 
ATOM     25 C20  LIG L   1      -8.386  17.209 133.161  1.00  0.00     0.000 A 
ENDBRANCH   11   20
TORSDOF 2
ENDMDL
MODEL 2
REMARK VINA RESULT:   -20.698      1.055      3.646
REMARK INTER + INTRA:         -25.309
REMARK INTER:                 -25.630
REMARK INTRA:                   0.321
REMARK UNBOUND:                 0.230
REMARK Flexibility Score: inf
REMARK Active torsions [ 2 ] -> [ 2 ]
ROOT
ATOM      1  C1  LIG L   1     -19.887  16.360 127.976  1.00  0.00     0.200 C 
ATOM      2  N1  LIG L   1     -18.811  15.638 127.243  1.00  0.00    -0.321 N 
ATOM      3  C2  LIG L   1     -17.520  16.131 127.301  1.00  0.00     0.041 A 
ATOM      4  C3  LIG L   1     -16.467  15.306 126.975  1.00  0.00     0.024 A 
ATOM      5  C4  LIG L   1     -15.151  15.776 127.017  1.00  0.00     0.002 A 
ATOM      6  C5  LIG L   1     -14.943  17.087 127.375  1.00  0.00     0.001 A 
ATOM      7  C6  LIG L   1     -16.015  17.935 127.711  1.00  0.00     0.015 A 
ATOM      8  C7  LIG L   1     -17.306  17.447 127.710  1.00  0.00     0.058 A 
ATOM      9  C8  LIG L   1     -18.396  18.296 127.920  1.00  0.00     0.254 C 
ATOM     10  O1  LIG L   1     -18.268  19.533 127.846  1.00  0.00    -0.270 OA
ATOM     11  N2  LIG L   1     -19.647  17.816 127.932  1.00  0.00    -0.244 N 
ATOM     12  H1  LIG L   1     -19.015  14.825 126.726  1.00  0.00     0.148 HD
ENDROOT
BRANCH    1   13
ATOM     13  C9  LIG L   1     -19.948  15.966 129.334  1.00  0.00     0.026 A 
ATOM     14  F1  LIG L   1     -20.968  14.043 128.648  1.00  0.00    -0.205 F 
ATOM     15 C10  LIG L   1     -20.530  14.738 129.619  1.00  0.00     0.130 A 
ATOM     16 C11  LIG L   1     -20.648  14.267 130.922  1.00  0.00     0.039 A 
ATOM     17 C12  LIG L   1     -19.505  16.737 130.430  1.00  0.00     0.010 A 
ATOM     18 C13  LIG L   1     -20.207  15.011 132.002  1.00  0.00     0.003 A 
ATOM     19 C14  LIG L   1     -19.604  16.243 131.750  1.00  0.00     0.001 A 
ENDBRANCH    1   13
BRANCH   11   20
ATOM     20 C15  LIG L   1     -20.689  18.658 127.836  1.00  0.00     0.039 A 
ATOM     21 C16  LIG L   1     -21.304  18.726 126.572  1.00  0.00     0.023 A 
ATOM     22 C17  LIG L   1     -21.166  19.462 128.855  1.00  0.00     0.023 A 
ATOM     23 C18  LIG L   1     -22.408  19.524 126.331  1.00  0.00     0.002 A 
ATOM     24 C19  LIG L   1     -22.275  20.303 128.604  1.00  0.00     0.002 A 
ATOM     25 C20  LIG L   1     -22.892  20.322 127.346  1.00  0.00     0.000 A 
ENDBRANCH   11   20
TORSDOF 2
REMARK Flexibility Score: inf
REMARK Active torsions [ 2 ] -> [ 2 ]
ROOT
ATOM      1  C1  LIG L   1     -12.079  15.582 130.124  1.00  0.00     0.200 C 
ATOM      2  N1  LIG L   1     -13.530  16.041 130.196  1.00  0.00    -0.321 N 
ATOM      3  C2  LIG L   1     -14.398  15.199 130.905  1.00  0.00     0.041 A 
ATOM      4  C3  LIG L   1     -15.717  15.075 130.537  1.00  0.00     0.024 A 
ATOM      5  C4  LIG L   1     -16.574  14.211 131.219  1.00  0.00     0.002 A 
ATOM      6  C5  LIG L   1     -16.070  13.473 132.255  1.00  0.00     0.001 A 
ATOM      7  C6  LIG L   1     -14.728  13.584 132.607  1.00  0.00     0.015 A 
ATOM      8  C7  LIG L   1     -13.864  14.401 131.897  1.00  0.00     0.058 A 
ATOM      9  C8  LIG L   1     -12.571  14.671 132.301  1.00  0.00     0.254 C 
ATOM     10  O1  LIG L   1     -12.326  14.642 133.495  1.00  0.00    -0.270 OA
ATOM     11  N2  LIG L   1     -11.705  15.383 131.551  1.00  0.00    -0.244 N 
ATOM     12  H1  LIG L   1     -13.838  16.874 129.772  1.00  0.00     0.148 HD
ENDROOT
BRANCH    1   13
ATOM     13  C9  LIG L   1     -11.776  14.366 129.397  1.00  0.00     0.026 A 
ATOM     14  F1  LIG L   1     -12.133  15.511 127.312  1.00  0.00    -0.205 F 
ATOM     15 C10  LIG L   1     -11.798  14.368 127.995  1.00  0.00     0.130 A 
ATOM     16 C11  LIG L   1     -11.475  13.229 127.261  1.00  0.00     0.039 A 
ATOM     17 C12  LIG L   1     -11.114  12.063 127.913  1.00  0.00     0.003 A 
ATOM     18 C13  LIG L   1     -11.402  13.166 130.033  1.00  0.00     0.010 A 
ATOM     19 C14  LIG L   1     -11.096  12.031 129.304  1.00  0.00     0.001 A 
ENDBRANCH    1   13
BRANCH   11   20
ATOM     20 C15  LIG L   1     -10.575  15.941 132.029  1.00  0.00     0.039 A 
ATOM     21 C16  LIG L   1      -9.461  16.127 131.214  1.00  0.00     0.023 A 
ATOM     22 C17  LIG L   1     -10.546  16.465 133.331  1.00  0.00     0.023 A 
ATOM     23 C18  LIG L   1      -8.333  16.789 131.724  1.00  0.00     0.002 A 
ATOM     24 C19  LIG L   1      -9.421  17.098 133.858  1.00  0.00     0.002 A 
ATOM     25 C20  LIG L   1      -8.297  17.256 133.055  1.00  0.00     0.000 A 
ENDBRANCH   11   20
TORSDOF 2
ENDMDL
MODEL 3
REMARK VINA RESULT:   -20.504      1.393      3.180
REMARK INTER + INTRA:         -25.069
REMARK INTER:                 -25.468
REMARK INTRA:                   0.399
REMARK UNBOUND:                 0.230
REMARK Flexibility Score: inf
REMARK Active torsions [ 2 ] -> [ 2 ]
ROOT
ATOM      1  C1  LIG L   1     -18.872  17.860 129.324  1.00  0.00     0.200 C 
ATOM      2  N1  LIG L   1     -19.738  19.069 129.380  1.00  0.00    -0.321 N 
ATOM      3  C2  LIG L   1     -20.696  19.247 128.398  1.00  0.00     0.041 A 
ATOM      4  C3  LIG L   1     -21.740  20.116 128.624  1.00  0.00     0.024 A 
ATOM      5  C4  LIG L   1     -22.721  20.323 127.649  1.00  0.00     0.002 A 
ATOM      6  C5  LIG L   1     -22.602  19.649 126.457  1.00  0.00     0.001 A 
ATOM      7  C6  LIG L   1     -21.537  18.759 126.221  1.00  0.00     0.015 A 
ATOM      8  C7  LIG L   1     -20.600  18.528 127.208  1.00  0.00     0.058 A 
ATOM      9  C8  LIG L   1     -19.470  17.745 126.957  1.00  0.00     0.254 C 
ATOM     10  O1  LIG L   1     -19.133  17.460 125.792  1.00  0.00    -0.270 OA
ATOM     11  N2  LIG L   1     -18.569  17.512 127.921  1.00  0.00    -0.244 N 
ATOM     12  H1  LIG L   1     -19.631  19.730 130.102  1.00  0.00     0.148 HD
ENDROOT
BRANCH    1   13
ATOM     13  C9  LIG L   1     -19.496  16.743 129.929  1.00  0.00     0.026 A 
ATOM     14  F1  LIG L   1     -18.760  17.521 131.943  1.00  0.00    -0.205 F 
ATOM     15 C10  LIG L   1     -19.398  16.623 131.308  1.00  0.00     0.130 A 
ATOM     16 C11  LIG L   1     -19.967  15.556 131.994  1.00  0.00     0.039 A 
ATOM     17 C12  LIG L   1     -20.174  15.714 129.241  1.00  0.00     0.010 A 
ATOM     18 C13  LIG L   1     -20.643  14.548 131.329  1.00  0.00     0.003 A 
ATOM     19 C14  LIG L   1     -20.772  14.645 129.944  1.00  0.00     0.001 A 
ENDBRANCH    1   13
BRANCH   11   20
ATOM     20 C15  LIG L   1     -17.360  17.022 127.605  1.00  0.00     0.039 A 
ATOM     21 C16  LIG L   1     -16.360  17.980 127.351  1.00  0.00     0.023 A 
ATOM     22 C17  LIG L   1     -17.045  15.680 127.484  1.00  0.00     0.023 A 
ATOM     23 C18  LIG L   1     -15.059  17.625 127.046  1.00  0.00     0.002 A 
ATOM     24 C19  LIG L   1     -15.723  15.314 127.142  1.00  0.00     0.002 A 
ATOM     25 C20  LIG L   1     -14.738  16.288 126.933  1.00  0.00     0.000 A 
ENDBRANCH   11   20
TORSDOF 2
REMARK Flexibility Score: inf
REMARK Active torsions [ 2 ] -> [ 2 ]
ROOT
ATOM      1  C1  LIG L   1     -11.792  14.219 131.865  1.00  0.00     0.200 C 
ATOM      2  N1  LIG L   1     -11.315  12.924 131.218  1.00  0.00    -0.321 N 
ATOM      3  C2  LIG L   1     -11.080  12.987 129.838  1.00  0.00     0.041 A 
ATOM      4  C3  LIG L   1     -11.300  11.894 129.035  1.00  0.00     0.024 A 
ATOM      5  C4  LIG L   1     -11.100  11.964 127.655  1.00  0.00     0.002 A 
ATOM      6  C5  LIG L   1     -10.695  13.153 127.114  1.00  0.00     0.001 A 
ATOM      7  C6  LIG L   1     -10.498  14.264 127.929  1.00  0.00     0.015 A 
ATOM      8  C7  LIG L   1     -10.747  14.210 129.289  1.00  0.00     0.058 A 
ATOM      9  C8  LIG L   1     -10.414  15.227 130.163  1.00  0.00     0.254 C 
ATOM     10  O1  LIG L   1      -9.463  15.937 129.881  1.00  0.00    -0.270 OA
ATOM     11  N2  LIG L   1     -10.754  15.210 131.468  1.00  0.00    -0.244 N 
ATOM     12  H1  LIG L   1     -11.182  12.098 131.735  1.00  0.00     0.148 HD
ENDROOT
BRANCH    1   13
ATOM     13  C9  LIG L   1     -13.091  14.740 131.489  1.00  0.00     0.026 A 
ATOM     14  F1  LIG L   1     -14.165  12.942 132.670  1.00  0.00    -0.205 F 
ATOM     15 C10  LIG L   1     -14.254  14.087 131.919  1.00  0.00     0.130 A 
ATOM     16 C11  LIG L   1     -15.521  14.580 131.610  1.00  0.00     0.039 A 
ATOM     17 C12  LIG L   1     -15.651  15.742 130.871  1.00  0.00     0.003 A 
ATOM     18 C13  LIG L   1     -13.255  15.923 130.741  1.00  0.00     0.010 A 
ATOM     19 C14  LIG L   1     -14.512  16.403 130.422  1.00  0.00     0.001 A 
ENDBRANCH    1   13
BRANCH   11   20
ATOM     20 C15  LIG L   1     -10.185  15.993 132.407  1.00  0.00     0.039 A 
ATOM     21 C16  LIG L   1     -10.787  16.185 133.648  1.00  0.00     0.023 A 
ATOM     22 C17  LIG L   1      -8.905  16.527 132.194  1.00  0.00     0.023 A 
ATOM     23 C18  LIG L   1     -10.123  16.938 134.629  1.00  0.00     0.002 A 
ATOM     24 C19  LIG L   1      -8.248  17.300 133.150  1.00  0.00     0.002 A 
ATOM     25 C20  LIG L   1      -8.862  17.520 134.378  1.00  0.00     0.000 A 
ENDBRANCH   11   20
TORSDOF 2
ENDMDL
MODEL 4
REMARK VINA RESULT:   -19.703      1.742      4.842
REMARK INTER + INTRA:         -24.081
REMARK INTER:                 -24.455
REMARK INTRA:                   0.373
REMARK UNBOUND:                 0.230
REMARK Flexibility Score: inf
REMARK Active torsions [ 2 ] -> [ 2 ]
ROOT
ATOM      1  C1  LIG L   1     -19.808  16.317 127.966  1.00  0.00     0.200 C 
ATOM      2  N1  LIG L   1     -18.716  15.616 127.236  1.00  0.00    -0.321 N 
ATOM      3  C2  LIG L   1     -17.435  16.135 127.297  1.00  0.00     0.041 A 
ATOM      4  C3  LIG L   1     -16.366  15.330 126.974  1.00  0.00     0.024 A 
ATOM      5  C4  LIG L   1     -15.059  15.826 127.020  1.00  0.00     0.002 A 
ATOM      6  C5  LIG L   1     -14.878  17.140 127.378  1.00  0.00     0.001 A 
ATOM      7  C6  LIG L   1     -15.967  17.968 127.709  1.00  0.00     0.015 A 
ATOM      8  C7  LIG L   1     -17.248  17.454 127.706  1.00  0.00     0.058 A 
ATOM      9  C8  LIG L   1     -18.355  18.282 127.912  1.00  0.00     0.254 C 
ATOM     10  O1  LIG L   1     -18.252  19.521 127.837  1.00  0.00    -0.270 OA
ATOM     11  N2  LIG L   1     -19.597  17.778 127.921  1.00  0.00    -0.244 N 
ATOM     12  H1  LIG L   1     -18.902  14.799 126.719  1.00  0.00     0.148 HD
ENDROOT
BRANCH    1   13
ATOM     13  C9  LIG L   1     -19.865  15.923 129.323  1.00  0.00     0.026 A 
ATOM     14  F1  LIG L   1     -21.003  14.062 128.654  1.00  0.00    -0.205 F 
ATOM     15 C10  LIG L   1     -20.509  14.729 129.618  1.00  0.00     0.130 A 
ATOM     16 C11  LIG L   1     -20.628  14.261 130.921  1.00  0.00     0.039 A 
ATOM     17 C12  LIG L   1     -19.360  16.665 130.412  1.00  0.00     0.010 A 
ATOM     18 C13  LIG L   1     -20.126  14.976 131.994  1.00  0.00     0.003 A 
ATOM     19 C14  LIG L   1     -19.461  16.174 131.733  1.00  0.00     0.001 A 
ENDBRANCH    1   13
BRANCH   11   20
ATOM     20 C15  LIG L   1     -20.655  18.599 127.821  1.00  0.00     0.039 A 
ATOM     21 C16  LIG L   1     -21.238  18.690 126.544  1.00  0.00     0.023 A 
ATOM     22 C17  LIG L   1     -21.176  19.362 128.850  1.00  0.00     0.023 A 
ATOM     23 C18  LIG L   1     -22.353  19.470 126.297  1.00  0.00     0.002 A 
ATOM     24 C19  LIG L   1     -22.298  20.185 128.593  1.00  0.00     0.002 A 
ATOM     25 C20  LIG L   1     -22.882  20.227 127.321  1.00  0.00     0.000 A 
ENDBRANCH   11   20
TORSDOF 2
REMARK Flexibility Score: inf
REMARK Active torsions [ 2 ] -> [ 2 ]
ROOT
ATOM      1  C1  LIG L   1     -11.730  14.149 131.893  1.00  0.00     0.200 C 
ATOM      2  N1  LIG L   1     -11.230  12.881 131.212  1.00  0.00    -0.321 N 
ATOM      3  C2  LIG L   1     -11.023  12.978 129.829  1.00  0.00     0.041 A 
ATOM      4  C3  LIG L   1     -11.228  11.894 129.009  1.00  0.00     0.024 A 
ATOM      5  C4  LIG L   1     -11.056  11.997 127.628  1.00  0.00     0.002 A 
ATOM      6  C5  LIG L   1     -10.694  13.207 127.103  1.00  0.00     0.001 A 
ATOM      7  C6  LIG L   1     -10.512  14.307 127.936  1.00  0.00     0.015 A 
ATOM      8  C7  LIG L   1     -10.734  14.220 129.300  1.00  0.00     0.058 A 
ATOM      9  C8  LIG L   1     -10.413  15.228 130.187  1.00  0.00     0.254 C 
ATOM     10  O1  LIG L   1      -9.488  15.970 129.902  1.00  0.00    -0.270 OA
ATOM     11  N2  LIG L   1     -10.728  15.176 131.498  1.00  0.00    -0.244 N 
ATOM     12  H1  LIG L   1     -11.064  12.049 131.710  1.00  0.00     0.148 HD
ENDROOT
BRANCH    1   13
ATOM     13  C9  LIG L   1     -13.050  14.641 131.552  1.00  0.00     0.026 A 
ATOM     14  F1  LIG L   1     -14.052  12.797 132.726  1.00  0.00    -0.205 F 
ATOM     15 C10  LIG L   1     -14.186  13.950 131.995  1.00  0.00     0.130 A 
ATOM     16 C11  LIG L   1     -15.472  14.414 131.719  1.00  0.00     0.039 A 
ATOM     17 C12  LIG L   1     -15.648  15.583 131.001  1.00  0.00     0.003 A 
ATOM     18 C13  LIG L   1     -13.260  15.830 130.826  1.00  0.00     0.010 A 
ATOM     19 C14  LIG L   1     -14.536  16.281 130.539  1.00  0.00     0.001 A 
ENDBRANCH    1   13
BRANCH   11   20
ATOM     20 C15  LIG L   1     -10.163  15.956 132.442  1.00  0.00     0.039 A 
ATOM     21 C16  LIG L   1     -10.766  16.137 133.684  1.00  0.00     0.023 A 
ATOM     22 C17  LIG L   1      -8.886  16.499 132.232  1.00  0.00     0.023 A 
ATOM     23 C18  LIG L   1     -10.107  16.887 134.670  1.00  0.00     0.002 A 
ATOM     24 C19  LIG L   1      -8.234  17.270 133.194  1.00  0.00     0.002 A 
ATOM     25 C20  LIG L   1      -8.849  17.478 134.423  1.00  0.00     0.000 A 
ENDBRANCH   11   20
TORSDOF 2
ENDMDL
MODEL 5
REMARK VINA RESULT:   -19.182      1.381      3.349
REMARK INTER + INTRA:         -23.438
REMARK INTER:                 -23.902
REMARK INTRA:                   0.465
REMARK UNBOUND:                 0.230
REMARK Flexibility Score: inf
REMARK Active torsions [ 2 ] -> [ 2 ]
ROOT
ATOM      1  C1  LIG L   1     -19.469  16.496 127.389  1.00  0.00     0.200 C 
ATOM      2  N1  LIG L   1     -20.222  16.862 126.158  1.00  0.00    -0.321 N 
ATOM      3  C2  LIG L   1     -20.847  18.095 126.102  1.00  0.00     0.041 A 
ATOM      4  C3  LIG L   1     -21.208  18.614 124.879  1.00  0.00     0.024 A 
ATOM      5  C4  LIG L   1     -21.848  19.854 124.790  1.00  0.00     0.002 A 
ATOM      6  C5  LIG L   1     -22.120  20.527 125.957  1.00  0.00     0.001 A 
ATOM      7  C6  LIG L   1     -21.753  20.002 127.210  1.00  0.00     0.015 A 
ATOM      8  C7  LIG L   1     -21.081  18.799 127.283  1.00  0.00     0.058 A 
ATOM      9  C8  LIG L   1     -20.813  18.198 128.516  1.00  0.00     0.254 C 
ATOM     10  O1  LIG L   1     -21.392  18.576 129.552  1.00  0.00    -0.270 OA
ATOM     11  N2  LIG L   1     -20.149  17.037 128.583  1.00  0.00    -0.244 N 
ATOM     12  H1  LIG L   1     -20.274  16.239 125.397  1.00  0.00     0.148 HD
ENDROOT
BRANCH    1   13
ATOM     13  C9  LIG L   1     -18.150  17.007 127.365  1.00  0.00     0.026 A 
ATOM     14  F1  LIG L   1     -17.532  15.140 126.209  1.00  0.00    -0.205 F 
ATOM     15 C10  LIG L   1     -17.179  16.244 126.731  1.00  0.00     0.130 A 
ATOM     16 C11  LIG L   1     -15.852  16.653 126.664  1.00  0.00     0.039 A 
ATOM     17 C12  LIG L   1     -17.728  18.209 127.971  1.00  0.00     0.010 A 
ATOM     18 C13  LIG L   1     -15.431  17.836 127.246  1.00  0.00     0.003 A 
ATOM     19 C14  LIG L   1     -16.384  18.634 127.879  1.00  0.00     0.001 A 
ENDBRANCH    1   13
BRANCH   11   20
ATOM     20 C15  LIG L   1     -20.155  16.325 129.722  1.00  0.00     0.039 A 
ATOM     21 C16  LIG L   1     -20.589  14.991 129.607  1.00  0.00     0.023 A 
ATOM     22 C17  LIG L   1     -19.805  16.808 130.970  1.00  0.00     0.023 A 
ATOM     23 C18  LIG L   1     -20.618  14.130 130.687  1.00  0.00     0.002 A 
ATOM     24 C19  LIG L   1     -19.863  15.938 132.084  1.00  0.00     0.002 A 
ATOM     25 C20  LIG L   1     -20.262  14.604 131.933  1.00  0.00     0.000 A 
ENDBRANCH   11   20
TORSDOF 2
REMARK Flexibility Score: inf
REMARK Active torsions [ 2 ] -> [ 2 ]
ROOT
ATOM      1  C1  LIG L   1     -12.159  15.867 130.067  1.00  0.00     0.200 C 
ATOM      2  N1  LIG L   1     -13.587  16.397 130.062  1.00  0.00    -0.321 N 
ATOM      3  C2  LIG L   1     -14.543  15.569 130.666  1.00  0.00     0.041 A 
ATOM      4  C3  LIG L   1     -15.837  15.531 130.204  1.00  0.00     0.024 A 
ATOM      5  C4  LIG L   1     -16.782  14.682 130.780  1.00  0.00     0.002 A 
ATOM      6  C5  LIG L   1     -16.389  13.871 131.810  1.00  0.00     0.001 A 
ATOM      7  C6  LIG L   1     -15.071  13.895 132.258  1.00  0.00     0.015 A 
ATOM      8  C7  LIG L   1     -14.121  14.698 131.652  1.00  0.00     0.058 A 
ATOM      9  C8  LIG L   1     -12.848  14.881 132.156  1.00  0.00     0.254 C 
ATOM     10  O1  LIG L   1     -12.690  14.784 133.362  1.00  0.00    -0.270 OA
ATOM     11  N2  LIG L   1     -11.897  15.581 131.504  1.00  0.00    -0.244 N 
ATOM     12  H1  LIG L   1     -13.823  17.264 129.661  1.00  0.00     0.148 HD
ENDROOT
BRANCH    1   13
ATOM     13  C9  LIG L   1     -11.865  14.672 129.302  1.00  0.00     0.026 A 
ATOM     14  F1  LIG L   1     -12.738  15.715 127.318  1.00  0.00    -0.205 F 
ATOM     15 C10  LIG L   1     -12.153  14.635 127.930  1.00  0.00     0.130 A 
ATOM     16 C11  LIG L   1     -11.849  13.518 127.154  1.00  0.00     0.039 A 
ATOM     17 C12  LIG L   1     -11.242  12.417 127.731  1.00  0.00     0.003 A 
ATOM     18 C13  LIG L   1     -11.243  13.538 129.860  1.00  0.00     0.010 A 
ATOM     19 C14  LIG L   1     -10.956  12.424 129.092  1.00  0.00     0.001 A 
ENDBRANCH    1   13
BRANCH   11   20
ATOM     20 C15  LIG L   1     -10.778  16.057 132.086  1.00  0.00     0.039 A 
ATOM     21 C16  LIG L   1      -9.628  16.309 131.341  1.00  0.00     0.023 A 
ATOM     22 C17  LIG L   1     -10.793  16.429 133.439  1.00  0.00     0.023 A 
ATOM     23 C18  LIG L   1      -8.511  16.884 131.967  1.00  0.00     0.002 A 
ATOM     24 C19  LIG L   1      -9.680  16.974 134.078  1.00  0.00     0.002 A 
ATOM     25 C20  LIG L   1      -8.521  17.196 133.343  1.00  0.00     0.000 A 
ENDBRANCH   11   20
TORSDOF 2
ENDMDL
MODEL 6
REMARK VINA RESULT:   -18.821      1.270      3.673
REMARK INTER + INTRA:         -22.992
REMARK INTER:                 -22.590
REMARK INTRA:                  -0.402
REMARK UNBOUND:                 0.230
REMARK Flexibility Score: inf
REMARK Active torsions [ 2 ] -> [ 2 ]
ROOT
ATOM      1  C1  LIG L   1     -19.170  18.082 129.256  1.00  0.00     0.200 C 
ATOM      2  N1  LIG L   1     -20.011  19.311 129.257  1.00  0.00    -0.321 N 
ATOM      3  C2  LIG L   1     -20.968  19.462 128.270  1.00  0.00     0.041 A 
ATOM      4  C3  LIG L   1     -21.993  20.362 128.457  1.00  0.00     0.024 A 
ATOM      5  C4  LIG L   1     -22.973  20.543 127.476  1.00  0.00     0.002 A 
ATOM      6  C5  LIG L   1     -22.872  19.812 126.317  1.00  0.00     0.001 A 
ATOM      7  C6  LIG L   1     -21.827  18.890 126.120  1.00  0.00     0.015 A 
ATOM      8  C7  LIG L   1     -20.892  18.685 127.115  1.00  0.00     0.058 A 
ATOM      9  C8  LIG L   1     -19.779  17.869 126.898  1.00  0.00     0.254 C 
ATOM     10  O1  LIG L   1     -19.452  17.522 125.747  1.00  0.00    -0.270 OA
ATOM     11  N2  LIG L   1     -18.880  17.662 127.870  1.00  0.00    -0.244 N 
ATOM     12  H1  LIG L   1     -19.887  20.003 129.946  1.00  0.00     0.148 HD
ENDROOT
BRANCH    1   13
ATOM     13  C9  LIG L   1     -19.815  17.009 129.914  1.00  0.00     0.026 A 
ATOM     14  F1  LIG L   1     -19.188  17.950 131.896  1.00  0.00    -0.205 F 
ATOM     15 C10  LIG L   1     -19.786  16.997 131.302  1.00  0.00     0.130 A 
ATOM     16 C11  LIG L   1     -20.380  15.980 132.040  1.00  0.00     0.039 A 
ATOM     17 C12  LIG L   1     -20.450  15.921 129.277  1.00  0.00     0.010 A 
ATOM     18 C13  LIG L   1     -21.014  14.916 131.424  1.00  0.00     0.003 A 
ATOM     19 C14  LIG L   1     -21.074  14.903 130.030  1.00  0.00     0.001 A 
ENDBRANCH    1   13
BRANCH   11   20
ATOM     20 C15  LIG L   1     -17.682  17.133 127.574  1.00  0.00     0.039 A 
ATOM     21 C16  LIG L   1     -16.608  18.041 127.526  1.00  0.00     0.023 A 
ATOM     22 C17  LIG L   1     -17.443  15.800 127.291  1.00  0.00     0.023 A 
ATOM     23 C18  LIG L   1     -15.311  17.636 127.267  1.00  0.00     0.002 A 
ATOM     24 C19  LIG L   1     -16.123  15.388 126.995  1.00  0.00     0.002 A 
ATOM     25 C20  LIG L   1     -15.066  16.307 126.992  1.00  0.00     0.000 A 
ENDBRANCH   11   20
TORSDOF 2
REMARK Flexibility Score: inf
REMARK Active torsions [ 2 ] -> [ 2 ]
ROOT
ATOM      1  C1  LIG L   1     -12.450  13.392 130.903  1.00  0.00     0.200 C 
ATOM      2  N1  LIG L   1     -11.284  13.631 131.854  1.00  0.00    -0.321 N 
ATOM      3  C2  LIG L   1     -10.559  14.811 131.639  1.00  0.00     0.041 A 
ATOM      4  C3  LIG L   1      -9.210  14.866 131.895  1.00  0.00     0.024 A 
ATOM      5  C4  LIG L   1      -8.478  16.029 131.648  1.00  0.00     0.002 A 
ATOM      6  C5  LIG L   1      -9.131  17.113 131.129  1.00  0.00     0.001 A 
ATOM      7  C6  LIG L   1     -10.493  17.043 130.848  1.00  0.00     0.015 A 
ATOM      8  C7  LIG L   1     -11.208  15.874 131.043  1.00  0.00     0.058 A 
ATOM      9  C8  LIG L   1     -12.583  15.798 130.936  1.00  0.00     0.254 C 
ATOM     10  O1  LIG L   1     -13.233  16.800 131.183  1.00  0.00    -0.270 OA
ATOM     11  N2  LIG L   1     -13.260  14.635 131.024  1.00  0.00    -0.244 N 
ATOM     12  H1  LIG L   1     -11.054  12.998 132.572  1.00  0.00     0.148 HD
ENDROOT
BRANCH    1   13
ATOM     13  C9  LIG L   1     -12.162  13.167 129.501  1.00  0.00     0.026 A 
ATOM     14  F1  LIG L   1     -10.519  11.513 130.093  1.00  0.00    -0.205 F 
ATOM     15 C10  LIG L   1     -11.203  12.213 129.132  1.00  0.00     0.130 A 
ATOM     16 C11  LIG L   1     -10.927  11.942 127.792  1.00  0.00     0.039 A 
ATOM     17 C12  LIG L   1     -11.609  12.614 126.794  1.00  0.00     0.003 A 
ATOM     18 C13  LIG L   1     -12.843  13.833 128.463  1.00  0.00     0.010 A 
ATOM     19 C14  LIG L   1     -12.557  13.574 127.134  1.00  0.00     0.001 A 
ENDBRANCH    1   13
BRANCH   11   20
ATOM     20 C15  LIG L   1     -14.586  14.549 131.253  1.00  0.00     0.039 A 
ATOM     21 C16  LIG L   1     -15.494  15.323 130.535  1.00  0.00     0.023 A 
ATOM     22 C17  LIG L   1     -15.084  13.578 132.136  1.00  0.00     0.023 A 
ATOM     23 C18  LIG L   1     -16.871  15.144 130.743  1.00  0.00     0.002 A 
ATOM     24 C19  LIG L   1     -16.448  13.411 132.371  1.00  0.00     0.002 A 
ATOM     25 C20  LIG L   1     -17.355  14.205 131.679  1.00  0.00     0.000 A 
ENDBRANCH   11   20
TORSDOF 2
ENDMDL
MODEL 7
REMARK VINA RESULT:   -18.776      1.191      9.188
REMARK INTER + INTRA:         -22.937
REMARK INTER:                 -22.604
REMARK INTRA:                  -0.333
REMARK UNBOUND:                 0.230
REMARK Flexibility Score: inf
REMARK Active torsions [ 2 ] -> [ 2 ]
ROOT
ATOM      1  C1  LIG L   1     -12.353  15.373 129.987  1.00  0.00     0.200 C 
ATOM      2  N1  LIG L   1     -11.328  16.449 130.068  1.00  0.00    -0.321 N 
ATOM      3  C2  LIG L   1     -10.430  16.434 131.121  1.00  0.00     0.041 A 
ATOM      4  C3  LIG L   1      -9.263  17.158 131.022  1.00  0.00     0.024 A 
ATOM      5  C4  LIG L   1      -8.339  17.169 132.072  1.00  0.00     0.002 A 
ATOM      6  C5  LIG L   1      -8.638  16.453 133.206  1.00  0.00     0.001 A 
ATOM      7  C6  LIG L   1      -9.829  15.711 133.313  1.00  0.00     0.015 A 
ATOM      8  C7  LIG L   1     -10.713  15.670 132.253  1.00  0.00     0.058 A 
ATOM      9  C8  LIG L   1     -11.955  15.043 132.376  1.00  0.00     0.254 C 
ATOM     10  O1  LIG L   1     -12.414  14.743 133.495  1.00  0.00    -0.270 OA
ATOM     11  N2  LIG L   1     -12.805  14.993 131.341  1.00  0.00    -0.244 N 
ATOM     12  H1  LIG L   1     -11.289  17.158 129.386  1.00  0.00     0.148 HD
ENDROOT
BRANCH    1   13
ATOM     13  C9  LIG L   1     -11.845  14.215 129.353  1.00  0.00     0.026 A 
ATOM     14  F1  LIG L   1     -12.239  15.234 127.350  1.00  0.00    -0.205 F 
ATOM     15 C10  LIG L   1     -11.815  14.205 127.965  1.00  0.00     0.130 A 
ATOM     16 C11  LIG L   1     -11.345  13.110 127.249  1.00  0.00     0.039 A 
ATOM     17 C12  LIG L   1     -11.405  13.047 130.013  1.00  0.00     0.010 A 
ATOM     18 C13  LIG L   1     -10.901  11.965 127.888  1.00  0.00     0.003 A 
ATOM     19 C14  LIG L   1     -10.905  11.947 129.282  1.00  0.00     0.001 A 
ENDBRANCH    1   13
BRANCH   11   20
ATOM     20 C15  LIG L   1     -14.090  14.663 131.543  1.00  0.00     0.039 A 
ATOM     21 C16  LIG L   1     -15.040  15.596 131.087  1.00  0.00     0.023 A 
ATOM     22 C17  LIG L   1     -14.532  13.516 132.179  1.00  0.00     0.023 A 
ATOM     23 C18  LIG L   1     -16.401  15.376 131.197  1.00  0.00     0.002 A 
ATOM     24 C19  LIG L   1     -15.923  13.303 132.321  1.00  0.00     0.002 A 
ATOM     25 C20  LIG L   1     -16.847  14.230 131.823  1.00  0.00     0.000 A 
ENDBRANCH   11   20
TORSDOF 2
REMARK Flexibility Score: inf
REMARK Active torsions [ 2 ] -> [ 2 ]
ROOT
ATOM      1  C1  LIG L   1     -18.665  18.322 129.052  1.00  0.00     0.200 C 
ATOM      2  N1  LIG L   1     -18.923  17.851 130.478  1.00  0.00    -0.321 N 
ATOM      3  C2  LIG L   1     -19.606  16.633 130.600  1.00  0.00     0.041 A 
ATOM      4  C3  LIG L   1     -20.458  16.406 131.654  1.00  0.00     0.024 A 
ATOM      5  C4  LIG L   1     -21.167  15.209 131.759  1.00  0.00     0.002 A 
ATOM      6  C5  LIG L   1     -21.009  14.268 130.778  1.00  0.00     0.001 A 
ATOM      7  C6  LIG L   1     -20.164  14.514 129.700  1.00  0.00     0.015 A 
ATOM      8  C7  LIG L   1     -19.501  15.722 129.568  1.00  0.00     0.058 A 
ATOM      9  C8  LIG L   1     -18.532  15.956 128.612  1.00  0.00     0.254 C 
ATOM     10  O1  LIG L   1     -17.874  15.007 128.219  1.00  0.00    -0.270 OA
ATOM     11  N2  LIG L   1     -17.968  17.166 128.424  1.00  0.00    -0.244 N 
ATOM     12  H1  LIG L   1     -18.629  18.368 131.263  1.00  0.00     0.148 HD
ENDROOT
BRANCH    1   13
ATOM     13  C9  LIG L   1     -19.801  18.676 128.227  1.00  0.00     0.026 A 
ATOM     14  F1  LIG L   1     -20.377  20.439 129.757  1.00  0.00    -0.205 F 
ATOM     15 C10  LIG L   1     -20.627  19.746 128.600  1.00  0.00     0.130 A 
ATOM     16 C11  LIG L   1     -21.706  20.140 127.811  1.00  0.00     0.039 A 
ATOM     17 C12  LIG L   1     -21.979  19.478 126.628  1.00  0.00     0.003 A 
ATOM     18 C13  LIG L   1     -20.101  18.023 127.015  1.00  0.00     0.010 A 
ATOM     19 C14  LIG L   1     -21.182  18.405 126.241  1.00  0.00     0.001 A 
ENDBRANCH    1   13
BRANCH   11   20
ATOM     20 C15  LIG L   1     -16.816  17.366 127.752  1.00  0.00     0.039 A 
ATOM     21 C16  LIG L   1     -15.630  17.657 128.423  1.00  0.00     0.023 A 
ATOM     22 C17  LIG L   1     -16.765  17.156 126.365  1.00  0.00     0.023 A 
ATOM     23 C18  LIG L   1     -14.435  17.775 127.696  1.00  0.00     0.002 A 
ATOM     24 C19  LIG L   1     -15.590  17.299 125.629  1.00  0.00     0.002 A 
ATOM     25 C20  LIG L   1     -14.412  17.621 126.293  1.00  0.00     0.000 A 
ENDBRANCH   11   20
TORSDOF 2
ENDMDL
MODEL 8
REMARK VINA RESULT:   -18.573      1.854      8.996
REMARK INTER + INTRA:         -22.687
REMARK INTER:                 -22.049
REMARK INTRA:                  -0.638
REMARK UNBOUND:                 0.230
REMARK Flexibility Score: inf
REMARK Active torsions [ 2 ] -> [ 2 ]
ROOT
ATOM      1  C1  LIG L   1     -12.332  13.357 131.274  1.00  0.00     0.200 C 
ATOM      2  N1  LIG L   1     -11.585  12.227 130.655  1.00  0.00    -0.321 N 
ATOM      3  C2  LIG L   1     -11.347  12.255 129.292  1.00  0.00     0.041 A 
ATOM      4  C3  LIG L   1     -10.357  11.457 128.764  1.00  0.00     0.024 A 
ATOM      5  C4  LIG L   1     -10.098  11.457 127.390  1.00  0.00     0.002 A 
ATOM      6  C5  LIG L   1     -10.869  12.260 126.585  1.00  0.00     0.001 A 
ATOM      7  C6  LIG L   1     -11.882  13.078 127.119  1.00  0.00     0.015 A 
ATOM      8  C7  LIG L   1     -12.099  13.105 128.482  1.00  0.00     0.058 A 
ATOM      9  C8  LIG L   1     -13.174  13.813 129.026  1.00  0.00     0.254 C 
ATOM     10  O1  LIG L   1     -14.109  14.210 128.306  1.00  0.00    -0.270 OA
ATOM     11  N2  LIG L   1     -13.373  13.848 130.350  1.00  0.00    -0.244 N 
ATOM     12  H1  LIG L   1     -11.265  11.476 131.205  1.00  0.00     0.148 HD
ENDROOT
BRANCH    1   13
ATOM     13  C9  LIG L   1     -11.476  14.439 131.587  1.00  0.00     0.026 A 
ATOM     14  F1  LIG L   1     -12.854  14.920 133.341  1.00  0.00    -0.205 F 
ATOM     15 C10  LIG L   1     -11.808  15.223 132.684  1.00  0.00     0.130 A 
ATOM     16 C11  LIG L   1     -11.038  16.316 133.064  1.00  0.00     0.039 A 
ATOM     17 C12  LIG L   1     -10.334  14.817 130.850  1.00  0.00     0.010 A 
ATOM     18 C13  LIG L   1      -9.910  16.687 132.354  1.00  0.00     0.003 A 
ATOM     19 C14  LIG L   1      -9.540  15.913 131.255  1.00  0.00     0.001 A 
ENDBRANCH    1   13
BRANCH   11   20
ATOM     20 C15  LIG L   1     -14.550  14.268 130.840  1.00  0.00     0.039 A 
ATOM     21 C16  LIG L   1     -15.384  13.266 131.371  1.00  0.00     0.023 A 
ATOM     22 C17  LIG L   1     -15.001  15.576 130.832  1.00  0.00     0.023 A 
ATOM     23 C18  LIG L   1     -16.611  13.553 131.940  1.00  0.00     0.002 A 
ATOM     24 C19  LIG L   1     -16.270  15.869 131.385  1.00  0.00     0.002 A 
ATOM     25 C20  LIG L   1     -17.062  14.856 131.942  1.00  0.00     0.000 A 
ENDBRANCH   11   20
TORSDOF 2
REMARK Flexibility Score: inf
REMARK Active torsions [ 2 ] -> [ 2 ]
ROOT
ATOM      1  C1  LIG L   1     -18.734  18.361 128.810  1.00  0.00     0.200 C 
ATOM      2  N1  LIG L   1     -19.024  18.008 130.264  1.00  0.00    -0.321 N 
ATOM      3  C2  LIG L   1     -19.654  16.774 130.474  1.00  0.00     0.041 A 
ATOM      4  C3  LIG L   1     -20.534  16.599 131.515  1.00  0.00     0.024 A 
ATOM      5  C4  LIG L   1     -21.189  15.382 131.706  1.00  0.00     0.002 A 
ATOM      6  C5  LIG L   1     -20.949  14.366 130.822  1.00  0.00     0.001 A 
ATOM      7  C6  LIG L   1     -20.076  14.556 129.755  1.00  0.00     0.015 A 
ATOM      8  C7  LIG L   1     -19.467  15.779 129.534  1.00  0.00     0.058 A 
ATOM      9  C8  LIG L   1     -18.474  15.975 128.594  1.00  0.00     0.254 C 
ATOM     10  O1  LIG L   1     -17.758  15.028 128.312  1.00  0.00    -0.270 OA
ATOM     11  N2  LIG L   1     -17.961  17.190 128.314  1.00  0.00    -0.244 N 
ATOM     12  H1  LIG L   1     -18.785  18.608 131.007  1.00  0.00     0.148 HD
ENDROOT
BRANCH    1   13
ATOM     13  C9  LIG L   1     -19.854  18.582 127.918  1.00  0.00     0.026 A 
ATOM     14  F1  LIG L   1     -20.700  20.289 129.386  1.00  0.00    -0.205 F 
ATOM     15 C10  LIG L   1     -20.809  19.561 128.228  1.00  0.00     0.130 A 
ATOM     16 C11  LIG L   1     -21.878  19.828 127.375  1.00  0.00     0.039 A 
ATOM     17 C12  LIG L   1     -22.012  19.127 126.190  1.00  0.00     0.003 A 
ATOM     18 C13  LIG L   1     -20.014  17.887 126.703  1.00  0.00     0.010 A 
ATOM     19 C14  LIG L   1     -21.085  18.142 125.865  1.00  0.00     0.001 A 
ENDBRANCH    1   13
BRANCH   11   20
ATOM     20 C15  LIG L   1     -16.795  17.386 127.666  1.00  0.00     0.039 A 
ATOM     21 C16  LIG L   1     -15.637  17.741 128.355  1.00  0.00     0.023 A 
ATOM     22 C17  LIG L   1     -16.698  17.109 126.294  1.00  0.00     0.023 A 
ATOM     23 C18  LIG L   1     -14.425  17.854 127.657  1.00  0.00     0.002 A 
ATOM     24 C19  LIG L   1     -15.506  17.245 125.585  1.00  0.00     0.002 A 
ATOM     25 C20  LIG L   1     -14.357  17.631 126.265  1.00  0.00     0.000 A 
ENDBRANCH   11   20
TORSDOF 2
ENDMDL
MODEL 9
REMARK VINA RESULT:   -18.393      1.749      9.190
REMARK INTER + INTRA:         -22.464
REMARK INTER:                 -22.989
REMARK INTRA:                   0.525
REMARK UNBOUND:                 0.230
REMARK Flexibility Score: inf
REMARK Active torsions [ 2 ] -> [ 2 ]
ROOT
ATOM      1  C1  LIG L   1     -11.691  14.188 131.161  1.00  0.00     0.200 C 
ATOM      2  N1  LIG L   1     -11.132  14.517 132.501  1.00  0.00    -0.321 N 
ATOM      3  C2  LIG L   1     -10.240  15.569 132.610  1.00  0.00     0.041 A 
ATOM      4  C3  LIG L   1     -10.012  16.135 133.845  1.00  0.00     0.024 A 
ATOM      5  C4  LIG L   1      -9.111  17.194 133.989  1.00  0.00     0.002 A 
ATOM      6  C5  LIG L   1      -8.450  17.639 132.869  1.00  0.00     0.001 A 
ATOM      7  C6  LIG L   1      -8.680  17.065 131.605  1.00  0.00     0.015 A 
ATOM      8  C7  LIG L   1      -9.605  16.051 131.466  1.00  0.00     0.058 A 
ATOM      9  C8  LIG L   1      -9.764  15.383 130.249  1.00  0.00     0.254 C 
ATOM     10  O1  LIG L   1      -8.913  15.487 129.345  1.00  0.00    -0.270 OA
ATOM     11  N2  LIG L   1     -10.673  14.408 130.115  1.00  0.00    -0.244 N 
ATOM     12  H1  LIG L   1     -11.393  13.996 133.295  1.00  0.00     0.148 HD
ENDROOT
BRANCH    1   13
ATOM     13  C9  LIG L   1     -12.816  14.990 130.855  1.00  0.00     0.026 A 
ATOM     14  F1  LIG L   1     -14.088  13.527 132.057  1.00  0.00    -0.205 F 
ATOM     15 C10  LIG L   1     -14.047  14.586 131.354  1.00  0.00     0.130 A 
ATOM     16 C11  LIG L   1     -15.212  15.299 131.098  1.00  0.00     0.039 A 
ATOM     17 C12  LIG L   1     -12.800  16.145 130.044  1.00  0.00     0.010 A 
ATOM     18 C13  LIG L   1     -15.204  16.439 130.314  1.00  0.00     0.003 A 
ATOM     19 C14  LIG L   1     -13.983  16.881 129.807  1.00  0.00     0.001 A 
ENDBRANCH    1   13
BRANCH   11   20
ATOM     20 C15  LIG L   1     -10.618  13.581 129.058  1.00  0.00     0.039 A 
ATOM     21 C16  LIG L   1     -10.495  12.212 129.359  1.00  0.00     0.023 A 
ATOM     22 C17  LIG L   1     -10.643  13.974 127.732  1.00  0.00     0.023 A 
ATOM     23 C18  LIG L   1     -10.460  11.241 128.375  1.00  0.00     0.002 A 
ATOM     24 C19  LIG L   1     -10.576  12.986 126.722  1.00  0.00     0.002 A 
ATOM     25 C20  LIG L   1     -10.493  11.627 127.051  1.00  0.00     0.000 A 
ENDBRANCH   11   20
TORSDOF 2
REMARK Flexibility Score: inf
REMARK Active torsions [ 2 ] -> [ 2 ]
ROOT
ATOM      1  C1  LIG L   1     -18.630  18.381 129.045  1.00  0.00     0.200 C 
ATOM      2  N1  LIG L   1     -18.770  17.844 130.464  1.00  0.00    -0.321 N 
ATOM      3  C2  LIG L   1     -19.488  16.647 130.591  1.00  0.00     0.041 A 
ATOM      4  C3  LIG L   1     -20.244  16.395 131.711  1.00  0.00     0.024 A 
ATOM      5  C4  LIG L   1     -20.989  15.220 131.824  1.00  0.00     0.002 A 
ATOM      6  C5  LIG L   1     -20.965  14.328 130.788  1.00  0.00     0.001 A 
ATOM      7  C6  LIG L   1     -20.217  14.601 129.646  1.00  0.00     0.015 A 
ATOM      8  C7  LIG L   1     -19.521  15.789 129.509  1.00  0.00     0.058 A 
ATOM      9  C8  LIG L   1     -18.639  16.038 128.476  1.00  0.00     0.254 C 
ATOM     10  O1  LIG L   1     -18.062  15.088 127.974  1.00  0.00    -0.270 OA
ATOM     11  N2  LIG L   1     -18.045  17.235 128.294  1.00  0.00    -0.244 N 
ATOM     12  H1  LIG L   1     -18.381  18.307 131.240  1.00  0.00     0.148 HD
ENDROOT
BRANCH    1   13
ATOM     13  C9  LIG L   1     -19.825  18.820 128.353  1.00  0.00     0.026 A 
ATOM     14  F1  LIG L   1     -20.166  20.532 130.007  1.00  0.00    -0.205 F 
ATOM     15 C10  LIG L   1     -20.559  19.904 128.852  1.00  0.00     0.130 A 
ATOM     16 C11  LIG L   1     -21.692  20.380 128.193  1.00  0.00     0.039 A 
ATOM     17 C12  LIG L   1     -22.109  19.785 127.016  1.00  0.00     0.003 A 
ATOM     18 C13  LIG L   1     -20.272  18.237 127.150  1.00  0.00     0.010 A 
ATOM     19 C14  LIG L   1     -21.405  18.699 126.505  1.00  0.00     0.001 A 
ENDBRANCH    1   13
BRANCH   11   20
ATOM     20 C15  LIG L   1     -16.955  17.429 127.524  1.00  0.00     0.039 A 
ATOM     21 C16  LIG L   1     -16.254  18.632 127.555  1.00  0.00     0.023 A 
ATOM     22 C17  LIG L   1     -16.432  16.368 126.768  1.00  0.00     0.023 A 
ATOM     23 C18  LIG L   1     -15.077  18.765 126.802  1.00  0.00     0.002 A 
ATOM     24 C19  LIG L   1     -15.280  16.498 125.995  1.00  0.00     0.002 A 
ATOM     25 C20  LIG L   1     -14.596  17.708 125.999  1.00  0.00     0.000 A 
ENDBRANCH   11   20
TORSDOF 2
ENDMDL
