MODEL 1
REMARK VINA RESULT:     -13.2      0.000      0.000
REMARK SMILES Cc1ccc(NC(=O)c2ccc(CN3CC[NH+](C)CC3)cc2)cc1Nc1nccc(-c2cccnc2)n1
REMARK SMILES IDX 24 1 2 2 3 3 4 4 5 5 23 6 1 7 25 8 26 10 30 11 29 12 37 13
REMARK SMILES IDX 28 14 27 15 31 16 33 17 32 18 34 19 35 20 36 21 6 22 7 23
REMARK SMILES IDX 8 25 9 26 10 27 22 28 11 29 21 30 12 31 13 32 14 33 15 34
REMARK SMILES IDX 20 35 16 36 19 37 17 38 18 39
REMARK H PARENT 25 9 6 24 17 40
REMARK Flexibility Score: inf
ROOT
ATOM      1  C   UNL     1      15.839  54.718  12.416  1.00  0.00     0.046 A 
ATOM      2  C   UNL     1      16.906  54.563  11.420  1.00  0.00    -0.027 A 
ATOM      3  C   UNL     1      17.894  53.545  11.639  1.00  0.00     0.008 A 
ATOM      4  C   UNL     1      17.833  52.699  12.805  1.00  0.00     0.026 A 
ATOM      5  C   UNL     1      16.795  52.845  13.771  1.00  0.00     0.043 A 
ATOM      6  C   UNL     1      15.793  53.877  13.556  1.00  0.00     0.052 A 
ATOM      7  C   UNL     1      17.018  55.437  10.149  1.00  0.00     0.046 C 
ENDROOT
BRANCH   1   8
ATOM      8  N   UNL     1      14.850  55.693  12.259  1.00  0.00    -0.324 N 
ATOM      9  H   UNL     1      13.929  55.428  11.882  1.00  0.00     0.170 HD
BRANCH   8  10
ATOM     10  C   UNL     1      15.096  57.012  12.606  1.00  0.00     0.227 A 
ATOM     11  C   UNL     1      14.263  59.240  12.746  1.00  0.00     0.077 A 
ATOM     12  C   UNL     1      15.518  59.702  13.266  1.00  0.00     0.049 A 
ATOM     13  N   UNL     1      14.100  57.908  12.437  1.00  0.00    -0.213 NA
ATOM     14  C   UNL     1      16.542  58.743  13.435  1.00  0.00     0.117 A 
ATOM     15  N   UNL     1      16.318  57.425  13.104  1.00  0.00    -0.221 NA
BRANCH  11  16
ATOM     16  C   UNL     1      13.084  60.132  12.508  1.00  0.00     0.019 A 
ATOM     17  C   UNL     1      11.813  62.288  12.823  1.00  0.00     0.021 A 
ATOM     18  C   UNL     1      12.972  61.466  13.084  1.00  0.00     0.013 A 
ATOM     19  C   UNL     1      10.773  61.754  11.983  1.00  0.00     0.111 A 
ATOM     20  N   UNL     1      10.893  60.469  11.432  1.00  0.00    -0.264 NA
ATOM     21  C   UNL     1      11.998  59.656  11.665  1.00  0.00     0.121 A 
ENDBRANCH  11  16
ENDBRANCH   8  10
ENDBRANCH   1   8
BRANCH   5  22
ATOM     22  N   UNL     1      16.795  51.956  14.906  1.00  0.00    -0.322 N 
ATOM     23  C   UNL     1      15.762  51.709  15.795  1.00  0.00     0.255 C 
ATOM     24  H   UNL     1      17.671  51.440  15.077  1.00  0.00     0.170 HD
ATOM     25  O   UNL     1      14.744  52.381  15.875  1.00  0.00    -0.269 OA
BRANCH  23  26
ATOM     26  C   UNL     1      15.883  50.559  16.743  1.00  0.00     0.040 A 
ATOM     27  C   UNL     1      17.169  49.895  16.971  1.00  0.00     0.014 A 
ATOM     28  C   UNL     1      14.699  50.093  17.433  1.00  0.00     0.014 A 
ATOM     29  C   UNL     1      17.254  48.777  17.877  1.00  0.00     0.006 A 
ATOM     30  C   UNL     1      14.787  48.998  18.321  1.00  0.00     0.006 A 
ATOM     31  C   UNL     1      16.049  48.317  18.563  1.00  0.00    -0.034 A 
BRANCH  31  32
ATOM     32  C   UNL     1      16.043  47.119  19.530  1.00  0.00     0.120 C 
BRANCH  32  33
ATOM     33  N   UNL     1      17.306  46.835  20.275  1.00  0.00    -0.288 NA
ATOM     34  C   UNL     1      17.521  47.857  21.364  1.00  0.00     0.146 C 
ATOM     35  C   UNL     1      17.318  45.424  20.869  1.00  0.00     0.146 C 
ATOM     36  C   UNL     1      18.842  47.592  22.138  1.00  0.00     0.277 C 
ATOM     37  C   UNL     1      18.655  45.135  21.625  1.00  0.00     0.277 C 
ATOM     38  N   UNL     1      18.855  46.185  22.720  1.00  0.00    -0.335 N 
ATOM     39  C   UNL     1      20.083  45.883  23.470  1.00  0.00     0.332 C 
ATOM     40  H   UNL     1      18.069  46.148  23.384  1.00  0.00     0.347 HD
ENDBRANCH  32  33
ENDBRANCH  31  32
ENDBRANCH  23  26
ENDBRANCH   5  22
TORSDOF 7
ENDMDL
MODEL 2
REMARK VINA RESULT:     -11.3      0.989      1.686
REMARK SMILES Cc1ccc(NC(=O)c2ccc(CN3CC[NH+](C)CC3)cc2)cc1Nc1nccc(-c2cccnc2)n1
REMARK SMILES IDX 24 1 2 2 3 3 4 4 5 5 23 6 1 7 25 8 26 10 30 11 29 12 37 13
REMARK SMILES IDX 28 14 27 15 31 16 33 17 32 18 34 19 35 20 36 21 6 22 7 23
REMARK SMILES IDX 8 25 9 26 10 27 22 28 11 29 21 30 12 31 13 32 14 33 15 34
REMARK SMILES IDX 20 35 16 36 19 37 17 38 18 39
REMARK H PARENT 25 9 6 24 17 40
REMARK Flexibility Score: inf
ROOT
ATOM      1  C   UNL     1      16.377  55.580  12.750  1.00  0.00     0.046 A 
ATOM      2  C   UNL     1      17.014  55.193  11.486  1.00  0.00    -0.027 A 
ATOM      3  C   UNL     1      17.535  53.861  11.369  1.00  0.00     0.008 A 
ATOM      4  C   UNL     1      17.432  52.932  12.467  1.00  0.00     0.026 A 
ATOM      5  C   UNL     1      16.811  53.304  13.695  1.00  0.00     0.043 A 
ATOM      6  C   UNL     1      16.283  54.654  13.820  1.00  0.00     0.052 A 
ATOM      7  C   UNL     1      17.147  56.145  10.274  1.00  0.00     0.046 C 
ENDROOT
BRANCH   1   8
ATOM      8  N   UNL     1      15.853  56.863  12.925  1.00  0.00    -0.324 N 
ATOM      9  H   UNL     1      16.435  57.597  13.354  1.00  0.00     0.170 HD
BRANCH   8  10
ATOM     10  C   UNL     1      14.559  57.160  12.527  1.00  0.00     0.227 A 
ATOM     11  C   UNL     1      12.900  58.833  12.174  1.00  0.00     0.077 A 
ATOM     12  C   UNL     1      11.953  57.840  11.755  1.00  0.00     0.049 A 
ATOM     13  N   UNL     1      14.171  58.452  12.542  1.00  0.00    -0.213 NA
ATOM     14  C   UNL     1      12.385  56.494  11.747  1.00  0.00     0.117 A 
ATOM     15  N   UNL     1      13.670  56.177  12.131  1.00  0.00    -0.221 NA
BRANCH  11  16
ATOM     16  C   UNL     1      12.593  60.297  12.239  1.00  0.00     0.019 A 
ATOM     17  C   UNL     1      13.213  62.692  12.730  1.00  0.00     0.021 A 
ATOM     18  C   UNL     1      13.561  61.290  12.686  1.00  0.00     0.013 A 
ATOM     19  C   UNL     1      11.888  63.079  12.324  1.00  0.00     0.111 A 
ATOM     20  N   UNL     1      10.965  62.114  11.893  1.00  0.00    -0.264 NA
ATOM     21  C   UNL     1      11.272  60.758  11.839  1.00  0.00     0.121 A 
ENDBRANCH  11  16
ENDBRANCH   8  10
ENDBRANCH   1   8
BRANCH   5  22
ATOM     22  N   UNL     1      16.736  52.318  14.744  1.00  0.00    -0.322 N 
ATOM     23  C   UNL     1      15.703  52.106  15.642  1.00  0.00     0.255 C 
ATOM     24  H   UNL     1      17.551  51.694  14.837  1.00  0.00     0.170 HD
ATOM     25  O   UNL     1      14.771  52.876  15.818  1.00  0.00    -0.269 OA
BRANCH  23  26
ATOM     26  C   UNL     1      15.714  50.865  16.476  1.00  0.00     0.040 A 
ATOM     27  C   UNL     1      14.505  50.397  17.157  1.00  0.00     0.014 A 
ATOM     28  C   UNL     1      16.951  50.127  16.617  1.00  0.00     0.014 A 
ATOM     29  C   UNL     1      14.547  49.206  17.969  1.00  0.00     0.006 A 
ATOM     30  C   UNL     1      16.989  48.960  17.413  1.00  0.00     0.006 A 
ATOM     31  C   UNL     1      15.805  48.476  18.104  1.00  0.00    -0.034 A 
BRANCH  31  32
ATOM     32  C   UNL     1      15.948  47.208  18.966  1.00  0.00     0.120 C 
BRANCH  32  33
ATOM     33  N   UNL     1      17.127  47.131  19.879  1.00  0.00    -0.288 NA
ATOM     34  C   UNL     1      17.077  48.235  20.906  1.00  0.00     0.146 C 
ATOM     35  C   UNL     1      17.228  45.770  20.574  1.00  0.00     0.146 C 
ATOM     36  C   UNL     1      18.308  48.186  21.854  1.00  0.00     0.277 C 
ATOM     37  C   UNL     1      18.480  45.699  21.507  1.00  0.00     0.277 C 
ATOM     38  N   UNL     1      18.411  46.829  22.536  1.00  0.00    -0.335 N 
ATOM     39  C   UNL     1      19.557  46.730  23.452  1.00  0.00     0.332 C 
ATOM     40  H   UNL     1      17.554  46.733  23.100  1.00  0.00     0.347 HD
ENDBRANCH  32  33
ENDBRANCH  31  32
ENDBRANCH  23  26
ENDBRANCH   5  22
TORSDOF 7
ENDMDL
MODEL 3
REMARK VINA RESULT:     -11.2      2.946     12.425
REMARK SMILES Cc1ccc(NC(=O)c2ccc(CN3CC[NH+](C)CC3)cc2)cc1Nc1nccc(-c2cccnc2)n1
REMARK SMILES IDX 24 1 2 2 3 3 4 4 5 5 23 6 1 7 25 8 26 10 30 11 29 12 37 13
REMARK SMILES IDX 28 14 27 15 31 16 33 17 32 18 34 19 35 20 36 21 6 22 7 23
REMARK SMILES IDX 8 25 9 26 10 27 22 28 11 29 21 30 12 31 13 32 14 33 15 34
REMARK SMILES IDX 20 35 16 36 19 37 17 38 18 39
REMARK H PARENT 25 9 6 24 17 40
REMARK Flexibility Score: inf
ROOT
ATOM      1  C   UNL     1      16.836  48.707  17.618  1.00  0.00     0.046 A 
ATOM      2  C   UNL     1      15.515  48.428  18.196  1.00  0.00    -0.027 A 
ATOM      3  C   UNL     1      14.456  49.365  17.949  1.00  0.00     0.008 A 
ATOM      4  C   UNL     1      14.688  50.544  17.154  1.00  0.00     0.026 A 
ATOM      5  C   UNL     1      15.968  50.816  16.588  1.00  0.00     0.043 A 
ATOM      6  C   UNL     1      17.046  49.871  16.837  1.00  0.00     0.052 A 
ATOM      7  C   UNL     1      15.208  47.177  19.051  1.00  0.00     0.046 C 
ENDROOT
BRANCH   1   8
ATOM      8  N   UNL     1      17.906  47.834  17.825  1.00  0.00    -0.324 N 
ATOM      9  H   UNL     1      17.964  46.961  17.281  1.00  0.00     0.170 HD
BRANCH   8  10
ATOM     10  C   UNL     1      18.891  48.129  18.755  1.00  0.00     0.227 A 
ATOM     11  C   UNL     1      20.901  49.310  19.245  1.00  0.00     0.077 A 
ATOM     12  C   UNL     1      20.929  48.760  20.570  1.00  0.00     0.049 A 
ATOM     13  N   UNL     1      19.878  48.973  18.387  1.00  0.00    -0.213 NA
ATOM     14  C   UNL     1      19.883  47.880  20.930  1.00  0.00     0.117 A 
ATOM     15  N   UNL     1      18.889  47.580  20.024  1.00  0.00    -0.221 NA
BRANCH  11  16
ATOM     16  C   UNL     1      21.937  50.252  18.716  1.00  0.00     0.019 A 
ATOM     17  C   UNL     1      24.150  50.752  17.614  1.00  0.00     0.021 A 
ATOM     18  C   UNL     1      23.183  49.800  18.110  1.00  0.00     0.013 A 
ATOM     19  C   UNL     1      23.852  52.155  17.736  1.00  0.00     0.111 A 
ATOM     20  N   UNL     1      22.649  52.578  18.319  1.00  0.00    -0.264 NA
ATOM     21  C   UNL     1      21.698  51.685  18.804  1.00  0.00     0.121 A 
ENDBRANCH  11  16
ENDBRANCH   8  10
ENDBRANCH   1   8
BRANCH   5  22
ATOM     22  N   UNL     1      16.121  52.011  15.796  1.00  0.00    -0.322 N 
ATOM     23  C   UNL     1      15.652  52.249  14.515  1.00  0.00     0.255 C 
ATOM     24  H   UNL     1      16.642  52.783  16.238  1.00  0.00     0.170 HD
ATOM     25  O   UNL     1      15.211  51.387  13.769  1.00  0.00    -0.269 OA
BRANCH  23  26
ATOM     26  C   UNL     1      15.692  53.644  13.979  1.00  0.00     0.040 A 
ATOM     27  C   UNL     1      16.962  54.347  13.783  1.00  0.00     0.014 A 
ATOM     28  C   UNL     1      14.446  54.308  13.661  1.00  0.00     0.014 A 
ATOM     29  C   UNL     1      16.971  55.698  13.281  1.00  0.00     0.006 A 
ATOM     30  C   UNL     1      14.458  55.632  13.167  1.00  0.00     0.006 A 
ATOM     31  C   UNL     1      15.704  56.355  12.969  1.00  0.00    -0.034 A 
BRANCH  31  32
ATOM     32  C   UNL     1      15.617  57.802  12.448  1.00  0.00     0.120 C 
BRANCH  32  33
ATOM     33  N   UNL     1      14.339  58.537  12.682  1.00  0.00    -0.288 NA
ATOM     34  C   UNL     1      14.614  59.924  13.208  1.00  0.00     0.146 C 
ATOM     35  C   UNL     1      13.481  58.615  11.416  1.00  0.00     0.146 C 
ATOM     36  C   UNL     1      13.294  60.700  13.478  1.00  0.00     0.277 C 
ATOM     37  C   UNL     1      12.137  59.368  11.684  1.00  0.00     0.277 C 
ATOM     38  N   UNL     1      12.439  60.768  12.221  1.00  0.00    -0.335 N 
ATOM     39  C   UNL     1      11.179  61.499  12.419  1.00  0.00     0.332 C 
ATOM     40  H   UNL     1      12.996  61.292  11.530  1.00  0.00     0.347 HD
ENDBRANCH  32  33
ENDBRANCH  31  32
ENDBRANCH  23  26
ENDBRANCH   5  22
TORSDOF 7
ENDMDL
MODEL 4
REMARK VINA RESULT:     -11.1      3.777     12.379
REMARK SMILES Cc1ccc(NC(=O)c2ccc(CN3CC[NH+](C)CC3)cc2)cc1Nc1nccc(-c2cccnc2)n1
REMARK SMILES IDX 24 1 2 2 3 3 4 4 5 5 23 6 1 7 25 8 26 10 30 11 29 12 37 13
REMARK SMILES IDX 28 14 27 15 31 16 33 17 32 18 34 19 35 20 36 21 6 22 7 23
REMARK SMILES IDX 8 25 9 26 10 27 22 28 11 29 21 30 12 31 13 32 14 33 15 34
REMARK SMILES IDX 20 35 16 36 19 37 17 38 18 39
REMARK H PARENT 25 9 6 24 17 40
REMARK Flexibility Score: inf
ROOT
ATOM      1  C   UNL     1      18.120  48.614  18.848  1.00  0.00     0.046 A 
ATOM      2  C   UNL     1      17.111  47.554  18.971  1.00  0.00    -0.027 A 
ATOM      3  C   UNL     1      15.996  47.572  18.068  1.00  0.00     0.008 A 
ATOM      4  C   UNL     1      15.875  48.604  17.069  1.00  0.00     0.026 A 
ATOM      5  C   UNL     1      16.854  49.633  16.945  1.00  0.00     0.043 A 
ATOM      6  C   UNL     1      17.986  49.621  17.858  1.00  0.00     0.052 A 
ATOM      7  C   UNL     1      17.193  46.420  20.019  1.00  0.00     0.046 C 
ENDROOT
BRANCH   1   8
ATOM      8  N   UNL     1      19.227  48.651  19.699  1.00  0.00    -0.324 N 
ATOM      9  H   UNL     1      19.110  48.965  20.673  1.00  0.00     0.170 HD
BRANCH   8  10
ATOM     10  C   UNL     1      20.481  48.270  19.247  1.00  0.00     0.227 A 
ATOM     11  C   UNL     1      22.653  48.947  18.543  1.00  0.00     0.077 A 
ATOM     12  C   UNL     1      23.031  47.582  18.315  1.00  0.00     0.049 A 
ATOM     13  N   UNL     1      21.388  49.238  19.004  1.00  0.00    -0.213 NA
ATOM     14  C   UNL     1      22.063  46.588  18.580  1.00  0.00     0.117 A 
ATOM     15  N   UNL     1      20.813  46.944  19.037  1.00  0.00    -0.221 NA
BRANCH  11  16
ATOM     16  C   UNL     1      23.565  50.111  18.307  1.00  0.00     0.019 A 
ATOM     17  C   UNL     1      25.063  51.517  16.843  1.00  0.00     0.021 A 
ATOM     18  C   UNL     1      24.191  50.379  17.018  1.00  0.00     0.013 A 
ATOM     19  C   UNL     1      25.298  52.377  17.973  1.00  0.00     0.111 A 
ATOM     20  N   UNL     1      24.688  52.111  19.208  1.00  0.00    -0.264 NA
ATOM     21  C   UNL     1      23.843  51.023  19.406  1.00  0.00     0.121 A 
ENDBRANCH  11  16
ENDBRANCH   8  10
ENDBRANCH   1   8
BRANCH   5  22
ATOM     22  N   UNL     1      16.670  50.625  15.915  1.00  0.00    -0.322 N 
ATOM     23  C   UNL     1      15.714  51.626  15.858  1.00  0.00     0.255 C 
ATOM     24  H   UNL     1      17.330  50.584  15.125  1.00  0.00     0.170 HD
ATOM     25  O   UNL     1      14.734  51.687  16.585  1.00  0.00    -0.269 OA
BRANCH  23  26
ATOM     26  C   UNL     1      15.861  52.708  14.837  1.00  0.00     0.040 A 
ATOM     27  C   UNL     1      14.789  53.676  14.596  1.00  0.00     0.014 A 
ATOM     28  C   UNL     1      17.086  52.784  14.069  1.00  0.00     0.014 A 
ATOM     29  C   UNL     1      14.950  54.699  13.594  1.00  0.00     0.006 A 
ATOM     30  C   UNL     1      17.240  53.789  13.088  1.00  0.00     0.006 A 
ATOM     31  C   UNL     1      16.190  54.759  12.825  1.00  0.00    -0.034 A 
BRANCH  31  32
ATOM     32  C   UNL     1      16.440  55.804  11.721  1.00  0.00     0.120 C 
BRANCH  32  33
ATOM     33  N   UNL     1      15.791  57.139  11.883  1.00  0.00    -0.288 NA
ATOM     34  C   UNL     1      14.296  56.989  12.019  1.00  0.00     0.146 C 
ATOM     35  C   UNL     1      16.354  57.910  13.080  1.00  0.00     0.146 C 
ATOM     36  C   UNL     1      13.598  58.370  12.169  1.00  0.00     0.277 C 
ATOM     37  C   UNL     1      15.680  59.313  13.221  1.00  0.00     0.277 C 
ATOM     38  N   UNL     1      14.166  59.138  13.354  1.00  0.00    -0.335 N 
ATOM     39  C   UNL     1      13.535  60.452  13.545  1.00  0.00     0.332 C 
ATOM     40  H   UNL     1      13.954  58.568  14.185  1.00  0.00     0.347 HD
ENDBRANCH  32  33
ENDBRANCH  31  32
ENDBRANCH  23  26
ENDBRANCH   5  22
TORSDOF 7
ENDMDL
MODEL 5
REMARK VINA RESULT:     -10.6      2.531     12.639
REMARK SMILES Cc1ccc(NC(=O)c2ccc(CN3CC[NH+](C)CC3)cc2)cc1Nc1nccc(-c2cccnc2)n1
REMARK SMILES IDX 24 1 2 2 3 3 4 4 5 5 23 6 1 7 25 8 26 10 30 11 29 12 37 13
REMARK SMILES IDX 28 14 27 15 31 16 33 17 32 18 34 19 35 20 36 21 6 22 7 23
REMARK SMILES IDX 8 25 9 26 10 27 22 28 11 29 21 30 12 31 13 32 14 33 15 34
REMARK SMILES IDX 20 35 16 36 19 37 17 38 18 39
REMARK H PARENT 25 9 6 24 17 40
REMARK Flexibility Score: inf
ROOT
ATOM      1  C   UNL     1      15.415  48.013  18.461  1.00  0.00     0.046 A 
ATOM      2  C   UNL     1      14.100  47.821  19.085  1.00  0.00    -0.027 A 
ATOM      3  C   UNL     1      13.083  48.803  18.840  1.00  0.00     0.008 A 
ATOM      4  C   UNL     1      13.351  49.945  18.001  1.00  0.00     0.026 A 
ATOM      5  C   UNL     1      14.625  50.133  17.390  1.00  0.00     0.043 A 
ATOM      6  C   UNL     1      15.660  49.141  17.637  1.00  0.00     0.052 A 
ATOM      7  C   UNL     1      13.756  46.614  19.988  1.00  0.00     0.046 C 
ENDROOT
BRANCH   1   8
ATOM      8  N   UNL     1      16.445  47.093  18.664  1.00  0.00    -0.324 N 
ATOM      9  H   UNL     1      16.456  46.213  18.128  1.00  0.00     0.170 HD
BRANCH   8  10
ATOM     10  C   UNL     1      17.455  47.349  19.579  1.00  0.00     0.227 A 
ATOM     11  C   UNL     1      19.721  47.986  19.943  1.00  0.00     0.077 A 
ATOM     12  C   UNL     1      19.551  47.868  21.362  1.00  0.00     0.049 A 
ATOM     13  N   UNL     1      18.661  47.723  19.104  1.00  0.00    -0.213 NA
ATOM     14  C   UNL     1      18.278  47.477  21.833  1.00  0.00     0.117 A 
ATOM     15  N   UNL     1      17.258  47.224  20.942  1.00  0.00    -0.221 NA
BRANCH  11  16
ATOM     16  C   UNL     1      21.008  48.387  19.292  1.00  0.00     0.019 A 
ATOM     17  C   UNL     1      23.254  47.865  18.269  1.00  0.00     0.021 A 
ATOM     18  C   UNL     1      22.028  47.425  18.895  1.00  0.00     0.013 A 
ATOM     19  C   UNL     1      23.441  49.275  18.051  1.00  0.00     0.111 A 
ATOM     20  N   UNL     1      22.451  50.192  18.436  1.00  0.00    -0.264 NA
ATOM     21  C   UNL     1      21.261  49.798  19.039  1.00  0.00     0.121 A 
ENDBRANCH  11  16
ENDBRANCH   8  10
ENDBRANCH   1   8
BRANCH   5  22
ATOM     22  N   UNL     1      14.813  51.294  16.557  1.00  0.00    -0.322 N 
ATOM     23  C   UNL     1      15.892  51.590  15.740  1.00  0.00     0.255 C 
ATOM     24  H   UNL     1      14.053  51.988  16.571  1.00  0.00     0.170 HD
ATOM     25  O   UNL     1      16.961  50.998  15.765  1.00  0.00    -0.269 OA
BRANCH  23  26
ATOM     26  C   UNL     1      15.771  52.714  14.762  1.00  0.00     0.040 A 
ATOM     27  C   UNL     1      16.696  52.843  13.634  1.00  0.00     0.014 A 
ATOM     28  C   UNL     1      14.723  53.695  14.949  1.00  0.00     0.014 A 
ATOM     29  C   UNL     1      16.568  53.947  12.716  1.00  0.00     0.006 A 
ATOM     30  C   UNL     1      14.599  54.775  14.047  1.00  0.00     0.006 A 
ATOM     31  C   UNL     1      15.507  54.930  12.922  1.00  0.00    -0.034 A 
BRANCH  31  32
ATOM     32  C   UNL     1      15.308  56.151  12.004  1.00  0.00     0.120 C 
BRANCH  32  33
ATOM     33  N   UNL     1      14.603  57.334  12.583  1.00  0.00    -0.288 NA
ATOM     34  C   UNL     1      15.557  58.491  12.748  1.00  0.00     0.146 C 
ATOM     35  C   UNL     1      13.402  57.758  11.733  1.00  0.00     0.146 C 
ATOM     36  C   UNL     1      14.847  59.727  13.369  1.00  0.00     0.277 C 
ATOM     37  C   UNL     1      12.663  58.983  12.365  1.00  0.00     0.277 C 
ATOM     38  N   UNL     1      13.648  60.142  12.528  1.00  0.00    -0.335 N 
ATOM     39  C   UNL     1      12.943  61.313  13.067  1.00  0.00     0.332 C 
ATOM     40  H   UNL     1      14.029  60.405  11.607  1.00  0.00     0.347 HD
ENDBRANCH  32  33
ENDBRANCH  31  32
ENDBRANCH  23  26
ENDBRANCH   5  22
TORSDOF 7
ENDMDL
