MODEL 1
REMARK VINA RESULT:     0.298      0.000      0.000
REMARK INTER + INTRA:          -0.284
REMARK INTER:                  -0.001
REMARK INTRA:                  -0.283
REMARK CONF_INDEPENDENT:        0.298
REMARK UNBOUND:                -0.283
REMARK SMILES CN1CCC[C@H]1c1cccnc1
REMARK SMILES IDX 2 1 6 2 5 3 4 4 3 5 1 6 7 8 11 9 12 10 10 11 9 13 8 14
REMARK H PARENT
REMARK Flexibility Score: inf
ROOT
ATOM      1  N   UNL     1       5.836   3.492  -2.524  1.00  0.00    -0.299 NA
ATOM      2  C   UNL     1       4.790   4.237  -1.779  1.00  0.00     0.088 C 
ATOM      3  C   UNL     1       4.511   5.461  -2.687  1.00  0.00     0.025 C 
ATOM      4  C   UNL     1       5.914   5.812  -3.233  1.00  0.00     0.017 C 
ATOM      5  C   UNL     1       6.736   4.520  -3.090  1.00  0.00     0.085 C 
ATOM      6  C   UNL     1       6.617   2.750  -1.527  1.00  0.00     0.106 C 
ATOM      7 WAT  UNL     1       4.691   1.676  -4.620  1.00  0.00     0.000 W 
ENDROOT
BRANCH   2   8
ATOM      8  C   UNL     1       3.548   3.400  -1.618  1.00  0.00    -0.012 A 
ATOM      9  N   UNL     1       1.713   2.742  -0.311  1.00  0.00    -0.264 NA
ATOM     10  C   UNL     1       2.804   3.468  -0.457  1.00  0.00     0.116 A 
ATOM     11  C   UNL     1       1.297   1.919  -1.253  1.00  0.00     0.111 A 
ATOM     12 WAT  UNL     1       0.138   2.967   2.233  1.00  0.00     0.000 W 
ATOM     13  C   UNL     1       1.993   1.793  -2.439  1.00  0.00     0.020 A 
ATOM     14  C   UNL     1       3.141   2.545  -2.631  1.00  0.00     0.008 A 
ENDBRANCH   2   8
TORSDOF 1
ENDMDL
MODEL 2
REMARK VINA RESULT:     0.298      1.994      2.196
REMARK INTER + INTRA:          -0.284
REMARK INTER:                  -0.001
REMARK INTRA:                  -0.283
REMARK CONF_INDEPENDENT:        0.298
REMARK UNBOUND:                -0.283
REMARK SMILES CN1CCC[C@H]1c1cccnc1
REMARK SMILES IDX 2 1 6 2 5 3 4 4 3 5 1 6 7 8 11 9 12 10 10 11 9 13 8 14
REMARK H PARENT
REMARK Flexibility Score: inf
ROOT
ATOM      1  N   UNL     1       5.088   4.242  -4.443  1.00  0.00    -0.299 NA
ATOM      2  C   UNL     1       4.023   4.993  -3.730  1.00  0.00     0.088 C 
ATOM      3  C   UNL     1       3.730   6.180  -4.679  1.00  0.00     0.025 C 
ATOM      4  C   UNL     1       5.129   6.539  -5.228  1.00  0.00     0.017 C 
ATOM      5  C   UNL     1       5.974   5.267  -5.036  1.00  0.00     0.085 C 
ATOM      6  C   UNL     1       5.875   3.547  -3.416  1.00  0.00     0.106 C 
ATOM      7 WAT  UNL     1       3.990   2.338  -6.485  1.00  0.00     0.000 W 
ENDROOT
BRANCH   2   8
ATOM      8  C   UNL     1       2.796   4.139  -3.549  1.00  0.00    -0.012 A 
ATOM      9  N   UNL     1       0.963   3.492  -2.233  1.00  0.00    -0.264 NA
ATOM     10  C   UNL     1       2.042   4.233  -2.396  1.00  0.00     0.116 A 
ATOM     11  C   UNL     1       0.568   2.631  -3.150  1.00  0.00     0.111 A 
ATOM     12 WAT  UNL     1      -0.634   3.772   0.292  1.00  0.00     0.000 W 
ATOM     13  C   UNL     1       1.275   2.478  -4.326  1.00  0.00     0.020 A 
ATOM     14  C   UNL     1       2.411   3.244  -4.536  1.00  0.00     0.008 A 
ENDBRANCH   2   8
TORSDOF 1
ENDMDL
MODEL 3
REMARK VINA RESULT:     0.298      2.623      3.922
REMARK INTER + INTRA:          -0.284
REMARK INTER:                  -0.001
REMARK INTRA:                  -0.284
REMARK CONF_INDEPENDENT:        0.298
REMARK UNBOUND:                -0.284
REMARK SMILES CN1CCC[C@H]1c1cccnc1
REMARK SMILES IDX 2 1 6 2 5 3 4 4 3 5 1 6 7 8 11 9 12 10 10 11 9 13 8 14
REMARK H PARENT
REMARK Flexibility Score: inf
ROOT
ATOM      1  N   UNL     1       4.712   6.872  -1.628  1.00  0.00    -0.299 NA
ATOM      2  C   UNL     1       5.300   5.551  -1.290  1.00  0.00     0.088 C 
ATOM      3  C   UNL     1       5.890   5.776   0.124  1.00  0.00     0.025 C 
ATOM      4  C   UNL     1       6.438   7.219   0.045  1.00  0.00     0.017 C 
ATOM      5  C   UNL     1       5.663   7.879  -1.110  1.00  0.00     0.085 C 
ATOM      6  C   UNL     1       4.736   6.983  -3.091  1.00  0.00     0.106 C 
ATOM      7 WAT  UNL     1       1.943   7.221  -0.527  1.00  0.00     0.000 W 
ENDROOT
BRANCH   2   8
ATOM      8  C   UNL     1       4.237   4.484  -1.259  1.00  0.00    -0.012 A 
ATOM      9  N   UNL     1       3.588   2.268  -1.683  1.00  0.00    -0.264 NA
ATOM     10  C   UNL     1       4.512   3.208  -1.711  1.00  0.00     0.116 A 
ATOM     11  C   UNL     1       2.371   2.506  -1.237  1.00  0.00     0.111 A 
ATOM     12 WAT  UNL     1       4.274  -0.484  -2.661  1.00  0.00     0.000 W 
ATOM     13  C   UNL     1       2.020   3.759  -0.775  1.00  0.00     0.020 A 
ATOM     14  C   UNL     1       2.967   4.771  -0.783  1.00  0.00     0.008 A 
ENDBRANCH   2   8
TORSDOF 1
ENDMDL
MODEL 4
REMARK VINA RESULT:     0.298      3.324      4.634
REMARK INTER + INTRA:          -0.284
REMARK INTER:                  -0.001
REMARK INTRA:                  -0.284
REMARK CONF_INDEPENDENT:        0.298
REMARK UNBOUND:                -0.284
REMARK SMILES CN1CCC[C@H]1c1cccnc1
REMARK SMILES IDX 2 1 6 2 5 3 4 4 3 5 1 6 7 8 11 9 12 10 10 11 9 13 8 14
REMARK H PARENT
REMARK Flexibility Score: inf
ROOT
ATOM      1  N   UNL     1       3.963   4.242   1.851  1.00  0.00    -0.299 NA
ATOM      2  C   UNL     1       3.911   3.461   0.590  1.00  0.00     0.088 C 
ATOM      3  C   UNL     1       5.207   2.616   0.641  1.00  0.00     0.025 C 
ATOM      4  C   UNL     1       6.229   3.588   1.274  1.00  0.00     0.017 C 
ATOM      5  C   UNL     1       5.380   4.628   2.026  1.00  0.00     0.085 C 
ATOM      6  C   UNL     1       3.215   5.482   1.612  1.00  0.00     0.106 C 
ATOM      7 WAT  UNL     1       2.880   2.721   4.200  1.00  0.00     0.000 W 
ENDROOT
BRANCH   2   8
ATOM      8  C   UNL     1       2.695   2.571   0.562  1.00  0.00    -0.012 A 
ATOM      9  N   UNL     1       0.951   1.574  -0.652  1.00  0.00    -0.264 NA
ATOM     10  C   UNL     1       2.012   2.356  -0.619  1.00  0.00     0.116 A 
ATOM     11  C   UNL     1       0.495   0.979   0.432  1.00  0.00     0.111 A 
ATOM     12 WAT  UNL     1      -0.463   1.140  -3.262  1.00  0.00     0.000 W 
ATOM     13  C   UNL     1       1.122   1.152   1.650  1.00  0.00     0.020 A 
ATOM     14  C   UNL     1       2.244   1.961   1.723  1.00  0.00     0.008 A 
ENDBRANCH   2   8
TORSDOF 1
ENDMDL
MODEL 5
REMARK VINA RESULT:     0.298      2.366      2.546
REMARK INTER + INTRA:          -0.284
REMARK INTER:                  -0.001
REMARK INTRA:                  -0.283
REMARK CONF_INDEPENDENT:        0.298
REMARK UNBOUND:                -0.283
REMARK SMILES CN1CCC[C@H]1c1cccnc1
REMARK SMILES IDX 2 1 6 2 5 3 4 4 3 5 1 6 7 8 11 9 12 10 10 11 9 13 8 14
REMARK H PARENT
REMARK Flexibility Score: inf
ROOT
ATOM      1  N   UNL     1       5.088   2.367  -3.415  1.00  0.00    -0.299 NA
ATOM      2  C   UNL     1       4.740   2.249  -1.977  1.00  0.00     0.088 C 
ATOM      3  C   UNL     1       4.376   3.701  -1.579  1.00  0.00     0.025 C 
ATOM      4  C   UNL     1       5.391   4.544  -2.384  1.00  0.00     0.017 C 
ATOM      5  C   UNL     1       5.836   3.637  -3.545  1.00  0.00     0.085 C 
ATOM      6  C   UNL     1       6.037   1.286  -3.711  1.00  0.00     0.106 C 
ATOM      7 WAT  UNL     1       2.680   2.254  -5.201  1.00  0.00     0.000 W 
ENDROOT
BRANCH   2   8
ATOM      8  C   UNL     1       3.559   1.333  -1.786  1.00  0.00    -0.012 A 
ATOM      9  N   UNL     1       2.463  -0.309  -0.515  1.00  0.00    -0.264 NA
ATOM     10  C   UNL     1       3.495   0.492  -0.692  1.00  0.00     0.116 A 
ATOM     11  C   UNL     1       1.462  -0.348  -1.372  1.00  0.00     0.111 A 
ATOM     12 WAT  UNL     1       2.389  -2.087   1.899  1.00  0.00     0.000 W 
ATOM     13  C   UNL     1       1.459   0.459  -2.493  1.00  0.00     0.020 A 
ATOM     14  C   UNL     1       2.524   1.318  -2.709  1.00  0.00     0.008 A 
ENDBRANCH   2   8
TORSDOF 1
ENDMDL
MODEL 6
REMARK VINA RESULT:     0.298      3.877      4.674
REMARK INTER + INTRA:          -0.284
REMARK INTER:                  -0.001
REMARK INTRA:                  -0.284
REMARK CONF_INDEPENDENT:        0.298
REMARK UNBOUND:                -0.284
REMARK SMILES CN1CCC[C@H]1c1cccnc1
REMARK SMILES IDX 2 1 6 2 5 3 4 4 3 5 1 6 7 8 11 9 12 10 10 11 9 13 8 14
REMARK H PARENT
REMARK Flexibility Score: inf
ROOT
ATOM      1  N   UNL     1       5.453   5.742  -4.287  1.00  0.00    -0.299 NA
ATOM      2  C   UNL     1       4.591   6.155  -5.424  1.00  0.00     0.088 C 
ATOM      3  C   UNL     1       5.434   5.773  -6.665  1.00  0.00     0.025 C 
ATOM      4  C   UNL     1       6.876   6.104  -6.221  1.00  0.00     0.017 C 
ATOM      5  C   UNL     1       6.835   6.092  -4.682  1.00  0.00     0.085 C 
ATOM      6  C   UNL     1       5.105   6.610  -3.155  1.00  0.00     0.106 C 
ATOM      7 WAT  UNL     1       5.147   2.837  -3.600  1.00  0.00     0.000 W 
ENDROOT
BRANCH   2   8
ATOM      8  C   UNL     1       3.289   5.399  -5.410  1.00  0.00    -0.012 A 
ATOM      9  N   UNL     1       0.970   5.366  -5.775  1.00  0.00    -0.264 NA
ATOM     10  C   UNL     1       2.114   6.023  -5.780  1.00  0.00     0.116 A 
ATOM     11  C   UNL     1       0.899   4.101  -5.410  1.00  0.00     0.111 A 
ATOM     12 WAT  UNL     1      -1.534   6.787  -6.616  1.00  0.00     0.000 W 
ATOM     13  C   UNL     1       2.032   3.413  -5.021  1.00  0.00     0.020 A 
ATOM     14  C   UNL     1       3.252   4.069  -5.019  1.00  0.00     0.008 A 
ENDBRANCH   2   8
TORSDOF 1
ENDMDL
MODEL 7
REMARK VINA RESULT:     0.298      4.701      5.950
REMARK INTER + INTRA:          -0.284
REMARK INTER:                  -0.001
REMARK INTRA:                  -0.284
REMARK CONF_INDEPENDENT:        0.298
REMARK UNBOUND:                -0.284
REMARK SMILES CN1CCC[C@H]1c1cccnc1
REMARK SMILES IDX 2 1 6 2 5 3 4 4 3 5 1 6 7 8 11 9 12 10 10 11 9 13 8 14
REMARK H PARENT
REMARK Flexibility Score: inf
ROOT
ATOM      1  N   UNL     1      -0.162   2.742  -3.467  1.00  0.00    -0.299 NA
ATOM      2  C   UNL     1      -0.872   3.838  -2.760  1.00  0.00     0.088 C 
ATOM      3  C   UNL     1      -1.019   4.927  -3.851  1.00  0.00     0.025 C 
ATOM      4  C   UNL     1       0.313   4.820  -4.627  1.00  0.00     0.017 C 
ATOM      5  C   UNL     1       0.837   3.404  -4.334  1.00  0.00     0.085 C 
ATOM      6  C   UNL     1       0.590   1.999  -2.448  1.00  0.00     0.106 C 
ATOM      7 WAT  UNL     1      -2.024   0.957  -5.000  1.00  0.00     0.000 W 
ENDROOT
BRANCH   2   8
ATOM      8  C   UNL     1      -2.225   3.377  -2.281  1.00  0.00    -0.012 A 
ATOM      9  N   UNL     1      -3.911   3.424  -0.649  1.00  0.00    -0.264 NA
ATOM     10  C   UNL     1      -2.726   3.818  -1.072  1.00  0.00     0.116 A 
ATOM     11  C   UNL     1      -4.656   2.592  -1.350  1.00  0.00     0.111 A 
ATOM     12 WAT  UNL     1      -4.939   4.446   1.977  1.00  0.00     0.000 W 
ATOM     13  C   UNL     1      -4.218   2.104  -2.565  1.00  0.00     0.020 A 
ATOM     14  C   UNL     1      -2.980   2.501  -3.046  1.00  0.00     0.008 A 
ENDBRANCH   2   8
TORSDOF 1
ENDMDL
MODEL 8
REMARK VINA RESULT:     0.298      2.735      3.145
REMARK INTER + INTRA:          -0.284
REMARK INTER:                  -0.001
REMARK INTRA:                  -0.283
REMARK CONF_INDEPENDENT:        0.298
REMARK UNBOUND:                -0.283
REMARK SMILES CN1CCC[C@H]1c1cccnc1
REMARK SMILES IDX 2 1 6 2 5 3 4 4 3 5 1 6 7 8 11 9 12 10 10 11 9 13 8 14
REMARK H PARENT
REMARK Flexibility Score: inf
ROOT
ATOM      1  N   UNL     1       4.711   4.990  -0.469  1.00  0.00    -0.299 NA
ATOM      2  C   UNL     1       4.058   5.327   0.820  1.00  0.00     0.088 C 
ATOM      3  C   UNL     1       3.504   6.753   0.576  1.00  0.00     0.025 C 
ATOM      4  C   UNL     1       4.607   7.408  -0.287  1.00  0.00     0.017 C 
ATOM      5  C   UNL     1       5.370   6.234  -0.924  1.00  0.00     0.085 C 
ATOM      6  C   UNL     1       5.782   4.033  -0.163  1.00  0.00     0.106 C 
ATOM      7 WAT  UNL     1       2.784   3.895  -2.491  1.00  0.00     0.000 W 
ENDROOT
BRANCH   2   8
ATOM      8  C   UNL     1       2.938   4.365   1.120  1.00  0.00    -0.012 A 
ATOM      9  N   UNL     1       1.714   3.119   2.688  1.00  0.00    -0.264 NA
ATOM     10  C   UNL     1       2.696   3.957   2.417  1.00  0.00     0.116 A 
ATOM     11  C   UNL     1       0.936   2.632   1.741  1.00  0.00     0.111 A 
ATOM     12 WAT  UNL     1       1.238   2.298   5.534  1.00  0.00     0.000 W 
ATOM     13  C   UNL     1       1.123   2.991   0.421  1.00  0.00     0.020 A 
ATOM     14  C   UNL     1       2.141   3.874   0.098  1.00  0.00     0.008 A 
ENDBRANCH   2   8
TORSDOF 1
ENDMDL
MODEL 9
REMARK VINA RESULT:     0.298      3.163      3.476
REMARK INTER + INTRA:          -0.284
REMARK INTER:                  -0.001
REMARK INTRA:                  -0.284
REMARK CONF_INDEPENDENT:        0.298
REMARK UNBOUND:                -0.284
REMARK SMILES CN1CCC[C@H]1c1cccnc1
REMARK SMILES IDX 2 1 6 2 5 3 4 4 3 5 1 6 7 8 11 9 12 10 10 11 9 13 8 14
REMARK H PARENT
REMARK Flexibility Score: inf
ROOT
ATOM      1  N   UNL     1       4.340   5.351  -1.640  1.00  0.00    -0.299 NA
ATOM      2  C   UNL     1       2.993   5.817  -2.055  1.00  0.00     0.088 C 
ATOM      3  C   UNL     1       3.262   7.240  -2.601  1.00  0.00     0.025 C 
ATOM      4  C   UNL     1       4.349   7.778  -1.643  1.00  0.00     0.017 C 
ATOM      5  C   UNL     1       5.002   6.526  -1.033  1.00  0.00     0.085 C 
ATOM      6  C   UNL     1       4.137   4.377  -0.560  1.00  0.00     0.106 C 
ATOM      7 WAT  UNL     1       5.912   4.182  -3.913  1.00  0.00     0.000 W 
ENDROOT
BRANCH   2   8
ATOM      8  C   UNL     1       2.430   4.929  -3.135  1.00  0.00    -0.012 A 
ATOM      9  N   UNL     1       0.579   3.865  -4.110  1.00  0.00    -0.264 NA
ATOM     10  C   UNL     1       1.080   4.637  -3.166  1.00  0.00     0.116 A 
ATOM     11  C   UNL     1       1.338   3.337  -5.050  1.00  0.00     0.111 A 
ATOM     12 WAT  UNL     1      -2.366   3.296  -4.122  1.00  0.00     0.000 W 
ATOM     13  C   UNL     1       2.698   3.580  -5.079  1.00  0.00     0.020 A 
ATOM     14  C   UNL     1       3.260   4.391  -4.106  1.00  0.00     0.008 A 
ENDBRANCH   2   8
TORSDOF 1
ENDMDL
